version 2
run Default-0-20220407-09:36:48-404
attr configname Default
attr datetime 20220407-09:36:48
attr experiment Default
attr inifile omnetpp.ini
attr iterationvars ""
attr iterationvarsf ""
attr measurement ""
attr network FL.simulations.FL.FLScenario
attr processid 404
attr repetition 0
attr replication #0
attr resultdir results
attr runnumber 0
attr seedset 0
param *.playgroundSizeX 2500m
param *.playgroundSizeY 2500m
param *.playgroundSizeZ 50m
param *.annotations.draw true
param *.manager.updateInterval 1s
param *.manager.host "\"localhost\""
param *.manager.port 9999
param *.manager.autoShutdown true
param *.manager.launchConfig "xmldoc(\"twoCars.launchd.xml\")"
param *.connectionManager.sendDirect true
param *.connectionManager.maxInterfDist 2600m
param *.connectionManager.drawMaxIntfDist false
param *.**.nic.mac1609_4.useServiceChannel false
param *.**.nic.mac1609_4.txPower 20mW
param *.**.nic.mac1609_4.bitrate 6Mbps
param *.**.nic.phy80211p.minPowerLevel -110dBm
param *.**.nic.phy80211p.useNoiseFloor true
param *.**.nic.phy80211p.noiseFloor -98dBm
param *.**.nic.phy80211p.decider "xmldoc(\"config.xml\")"
param *.**.nic.phy80211p.analogueModels "xmldoc(\"config.xml\")"
param *.**.nic.phy80211p.usePropagationDelay true
param *.**.nic.phy80211p.antenna "xmldoc(\"antenna.xml\", \"/root/Antenna[@id='monopole']\")"
param *.node[*].nic.phy80211p.antennaOffsetY "0 m"
param *.node[*].nic.phy80211p.antennaOffsetZ "1.895 m"
param *.node[*].applType "\"TraCIDemo11pRoss\""
param *.node[*].appl.headerLength "80 bit"
param *.node[*].appl.sendBeacons false
param *.node[*].appl.dataOnSch false
param *.node[*].appl.beaconInterval 1s
param *.node[*].veinsmobility.x 0
param *.node[*].veinsmobility.y 0
param *.node[*].veinsmobility.z 0
param *.node[*].veinsmobility.setHostSpeed false
param *.node[*].veinsmobility.accidentCount 1
param *.node[*].veinsmobility.accidentStart 20s
param *.node[*].veinsmobility.accidentDuration 30s

vector 0 FLScenario.node[0].veinsmobility posx ETV
vector 1 FLScenario.node[0].veinsmobility posy ETV
vector 2 FLScenario.node[1].veinsmobility posx ETV
vector 3 FLScenario.node[1].veinsmobility posy ETV
vector 4 FLScenario.node[0].veinsmobility speed ETV
vector 5 FLScenario.node[1].veinsmobility speed ETV
vector 6 FLScenario.node[0].veinsmobility acceleration ETV
vector 7 FLScenario.node[0].veinsmobility co2emission ETV
vector 8 FLScenario.node[1].veinsmobility acceleration ETV
vector 9 FLScenario.node[1].veinsmobility co2emission ETV
7	4	3	0.973
7	5	4	0.973
7	6	5	0.973
7	7	6	0.973
7	8	7	0.973
7	9	8	0.973
7	10	9	0.973
7	11	10	0.973
7	12	11	0.973
7	13	12	0.973
7	14	13	0.973
7	15	14	0.973
7	16	15	0.973
7	17	16	0.973
7	18	17	0.973
7	19	18	0.973
7	20	19	0.973
7	21	20	0.973
7	24	21	0.973
7	25	22	0.973
7	26	23	0.973
7	27	24	0.973
7	28	25	0.973
7	29	26	0.973
7	30	27	0.973
7	31	28	0.973
7	32	29	0.973
7	33	30	0.973
7	36	31	0.973
7	37	32	0.973
7	38	33	0.973
7	39	34	0.973
7	40	35	0.973
7	41	36	0.973
7	42	37	0.973
7	43	38	0.973
7	44	39	0.973
7	45	40	0.973
7	46	41	0.973
7	47	42	0.973
7	48	43	0.973
7	49	44	0.973
7	50	45	0.973
7	51	46	0.973
7	52	47	0.973
7	53	48	0.973
7	54	49	0.973
7	55	50	0.973
7	58	51	0.973
7	59	52	0.973
7	60	53	0.973
7	61	54	0.973
7	62	55	0.973
7	63	56	0.973
7	64	57	0.973
7	65	58	0.973
7	66	59	0.973
7	67	60	0.973
7	68	61	0.973
7	69	62	0.973
7	98	63	0.973
7	99	64	0.973
7	100	65	0.973
7	101	66	0.973
7	102	67	0.973
7	103	68	0.973
7	104	69	0.973
7	105	70	0.973
7	106	71	0.973
7	107	72	0.973
7	108	73	0.973
7	109	74	0.973
7	110	75	0.973
7	111	76	0.973
7	112	77	0.973
7	113	78	0.973
7	114	79	0.973
7	115	80	0.973
7	116	81	0.973
7	117	82	0.973
7	118	83	0.973
7	119	84	0.973
7	120	85	0.973
7	121	86	0.973
7	122	87	0.973
7	123	88	0.973
7	124	89	0.973
7	125	90	0.973
6	4	3	0
6	5	4	0
6	6	5	0
6	7	6	0
6	8	7	0
6	9	8	0
6	10	9	0
6	11	10	0
6	12	11	0
6	13	12	0
6	14	13	0
6	15	14	0
6	16	15	0
6	17	16	0
6	18	17	0
6	19	18	0
6	20	19	0
6	21	20	0
6	24	21	0
6	25	22	0
6	26	23	0
6	27	24	0
6	28	25	0
6	29	26	0
6	30	27	0
6	31	28	0
6	32	29	0
6	33	30	0
6	36	31	0
6	37	32	0
6	38	33	0
6	39	34	0
6	40	35	0
6	41	36	0
6	42	37	0
6	43	38	0
6	44	39	0
6	45	40	0
6	46	41	0
6	47	42	0
6	48	43	0
6	49	44	0
6	50	45	0
6	51	46	0
6	52	47	0
6	53	48	0
6	54	49	0
6	55	50	0
6	58	51	0
6	59	52	0
6	60	53	0
6	61	54	0
6	62	55	0
6	63	56	0
6	64	57	0
6	65	58	0
6	66	59	0
6	67	60	0
6	68	61	0
6	69	62	0
6	98	63	0
6	99	64	0
6	100	65	0
6	101	66	0
6	102	67	0
6	103	68	0
6	104	69	0
6	105	70	0
6	106	71	0
6	107	72	0
6	108	73	0
6	109	74	0
6	110	75	0
6	111	76	0
6	112	77	0
6	113	78	0
6	114	79	0
6	115	80	0
6	116	81	0
6	117	82	0
6	118	83	0
6	119	84	0
6	120	85	0
6	121	86	0
6	122	87	0
6	123	88	0
6	124	89	0
6	125	90	0
4	3	2	0
4	4	3	0
4	5	4	0
4	6	5	0
4	7	6	0
4	8	7	0
4	9	8	0
4	10	9	0
4	11	10	0
4	12	11	0
4	13	12	0
4	14	13	0
4	15	14	0
4	16	15	0
4	17	16	0
4	18	17	0
4	19	18	0
4	20	19	0
4	21	20	0
4	24	21	0
4	25	22	0
4	26	23	0
4	27	24	0
4	28	25	0
4	29	26	0
4	30	27	0
4	31	28	0
4	32	29	0
4	33	30	0
4	36	31	0
4	37	32	0
4	38	33	0
4	39	34	0
4	40	35	0
4	41	36	0
4	42	37	0
4	43	38	0
4	44	39	0
4	45	40	0
4	46	41	0
4	47	42	0
4	48	43	0
4	49	44	0
4	50	45	0
4	51	46	0
4	52	47	0
4	53	48	0
4	54	49	0
4	55	50	0
4	58	51	0
4	59	52	0
4	60	53	0
4	61	54	0
4	62	55	0
4	63	56	0
4	64	57	0
4	65	58	0
4	66	59	0
4	67	60	0
4	68	61	0
4	69	62	0
4	98	63	0
4	99	64	0
4	100	65	0
4	101	66	0
4	102	67	0
4	103	68	0
4	104	69	0
4	105	70	0
4	106	71	0
4	107	72	0
4	108	73	0
4	109	74	0
4	110	75	0
4	111	76	0
4	112	77	0
4	113	78	0
4	114	79	0
4	115	80	0
4	116	81	0
4	117	82	0
4	118	83	0
4	119	84	0
4	120	85	0
4	121	86	0
4	122	87	0
4	123	88	0
4	124	89	0
4	125	90	0
1	2	1	26.611228533686
1	3	2	26.611228533686
1	4	3	26.611228533686
1	5	4	26.611228533686
1	6	5	26.611228533686
1	7	6	26.611228533686
1	8	7	26.611228533686
1	9	8	26.611228533686
1	10	9	26.611228533686
1	11	10	26.611228533686
1	12	11	26.611228533686
1	13	12	26.611228533686
1	14	13	26.611228533686
1	15	14	26.611228533686
1	16	15	26.611228533686
1	17	16	26.611228533686
1	18	17	26.611228533686
1	19	18	26.611228533686
1	20	19	26.611228533686
1	21	20	26.611228533686
1	24	21	26.611228533686
1	25	22	26.611228533686
1	26	23	26.611228533686
1	27	24	26.611228533686
1	28	25	26.611228533686
1	29	26	26.611228533686
1	30	27	26.611228533686
1	31	28	26.611228533686
1	32	29	26.611228533686
1	33	30	26.611228533686
1	36	31	26.611228533686
1	37	32	26.611228533686
1	38	33	26.611228533686
1	39	34	26.611228533686
1	40	35	26.611228533686
1	41	36	26.611228533686
1	42	37	26.611228533686
1	43	38	26.611228533686
1	44	39	26.611228533686
1	45	40	26.611228533686
1	46	41	26.611228533686
1	47	42	26.611228533686
1	48	43	26.611228533686
1	49	44	26.611228533686
1	50	45	26.611228533686
1	51	46	26.611228533686
1	52	47	26.611228533686
1	53	48	26.611228533686
1	54	49	26.611228533686
1	55	50	26.611228533686
1	58	51	26.611228533686
1	59	52	26.611228533686
1	60	53	26.611228533686
1	61	54	26.611228533686
1	62	55	26.611228533686
1	63	56	26.611228533686
1	64	57	26.611228533686
1	65	58	26.611228533686
1	66	59	26.611228533686
1	67	60	26.611228533686
1	68	61	26.611228533686
1	69	62	26.611228533686
1	98	63	26.611228533686
1	99	64	26.611228533686
1	100	65	26.611228533686
1	101	66	26.611228533686
1	102	67	26.611228533686
1	103	68	26.611228533686
1	104	69	26.611228533686
1	105	70	26.611228533686
1	106	71	26.611228533686
1	107	72	26.611228533686
1	108	73	26.611228533686
1	109	74	26.611228533686
1	110	75	26.611228533686
1	111	76	26.611228533686
1	112	77	26.611228533686
1	113	78	26.611228533686
1	114	79	26.611228533686
1	115	80	26.611228533686
1	116	81	26.611228533686
1	117	82	26.611228533686
1	118	83	26.611228533686
1	119	84	26.611228533686
1	120	85	26.611228533686
1	121	86	26.611228533686
1	122	87	26.611228533686
1	123	88	26.611228533686
1	124	89	26.611228533686
1	125	90	26.611228533686
0	2	1	30.1
0	3	2	30.1
0	4	3	30.1
0	5	4	30.1
0	6	5	30.1
0	7	6	30.1
0	8	7	30.1
0	9	8	30.1
0	10	9	30.1
0	11	10	30.1
0	12	11	30.1
0	13	12	30.1
0	14	13	30.1
0	15	14	30.1
0	16	15	30.1
0	17	16	30.1
0	18	17	30.1
0	19	18	30.1
0	20	19	30.1
0	21	20	30.1
0	24	21	30.1
0	25	22	30.1
0	26	23	30.1
0	27	24	30.1
0	28	25	30.1
0	29	26	30.1
0	30	27	30.1
0	31	28	30.1
0	32	29	30.1
0	33	30	30.1
0	36	31	30.1
0	37	32	30.1
0	38	33	30.1
0	39	34	30.1
0	40	35	30.1
0	41	36	30.1
0	42	37	30.1
0	43	38	30.1
0	44	39	30.1
0	45	40	30.1
0	46	41	30.1
0	47	42	30.1
0	48	43	30.1
0	49	44	30.1
0	50	45	30.1
0	51	46	30.1
0	52	47	30.1
0	53	48	30.1
0	54	49	30.1
0	55	50	30.1
0	58	51	30.1
0	59	52	30.1
0	60	53	30.1
0	61	54	30.1
0	62	55	30.1
0	63	56	30.1
0	64	57	30.1
0	65	58	30.1
0	66	59	30.1
0	67	60	30.1
0	68	61	30.1
0	69	62	30.1
0	98	63	30.1
0	99	64	30.1
0	100	65	30.1
0	101	66	30.1
0	102	67	30.1
0	103	68	30.1
0	104	69	30.1
0	105	70	30.1
0	106	71	30.1
0	107	72	30.1
0	108	73	30.1
0	109	74	30.1
0	110	75	30.1
0	111	76	30.1
0	112	77	30.1
0	113	78	30.1
0	114	79	30.1
0	115	80	30.1
0	116	81	30.1
0	117	82	30.1
0	118	83	30.1
0	119	84	30.1
0	120	85	30.1
0	121	86	30.1
0	122	87	30.1
0	123	88	30.1
0	124	89	30.1
0	125	90	30.1
9	4	3	0.973
9	5	4	0.973
9	6	5	0.973
9	7	6	0.973
9	8	7	0.973
9	9	8	0.973
9	10	9	0.973
9	11	10	0.973
9	12	11	0.973
9	13	12	0.973
9	14	13	0.973
9	15	14	0.973
9	16	15	0.973
9	17	16	0.973
9	18	17	0.973
9	19	18	0.973
9	20	19	0.973
9	21	20	0.973
9	24	21	0.973
9	25	22	0.973
9	26	23	0.973
9	27	24	0.973
9	28	25	0.973
9	29	26	0.973
9	30	27	0.973
9	31	28	0.973
9	32	29	0.973
9	33	30	0.973
9	36	31	0.973
9	37	32	0.973
9	38	33	0.973
9	39	34	0.973
9	40	35	0.973
9	41	36	0.973
9	42	37	0.973
9	43	38	0.973
9	44	39	0.973
9	45	40	0.973
9	46	41	0.973
9	47	42	0.973
9	48	43	0.973
9	49	44	0.973
9	50	45	0.973
9	51	46	0.973
9	52	47	0.973
9	53	48	0.973
9	54	49	0.973
9	55	50	0.973
9	58	51	0.973
9	59	52	0.973
9	60	53	0.973
9	61	54	0.973
9	62	55	0.973
9	63	56	0.973
9	64	57	0.973
9	65	58	0.973
9	66	59	0.973
9	67	60	0.973
9	68	61	0.973
9	69	62	0.973
9	98	63	0.973
9	99	64	0.973
9	100	65	0.973
9	101	66	0.973
9	102	67	0.973
9	103	68	0.973
9	104	69	0.973
9	105	70	0.973
9	106	71	0.973
9	107	72	0.973
9	108	73	0.973
9	109	74	0.973
9	110	75	0.973
9	111	76	0.973
9	112	77	0.973
9	113	78	0.973
9	114	79	0.973
9	115	80	0.973
9	116	81	0.973
9	117	82	0.973
9	118	83	0.973
9	119	84	0.973
9	120	85	0.973
9	121	86	0.973
9	122	87	0.973
9	123	88	0.973
9	124	89	0.973
9	125	90	0.973
8	4	3	0
8	5	4	0
8	6	5	0
8	7	6	0
8	8	7	0
8	9	8	0
8	10	9	0
8	11	10	0
8	12	11	0
8	13	12	0
8	14	13	0
8	15	14	0
8	16	15	0
8	17	16	0
8	18	17	0
8	19	18	0
8	20	19	0
8	21	20	0
8	24	21	0
8	25	22	0
8	26	23	0
8	27	24	0
8	28	25	0
8	29	26	0
8	30	27	0
8	31	28	0
8	32	29	0
8	33	30	0
8	36	31	0
8	37	32	0
8	38	33	0
8	39	34	0
8	40	35	0
8	41	36	0
8	42	37	0
8	43	38	0
8	44	39	0
8	45	40	0
8	46	41	0
8	47	42	0
8	48	43	0
8	49	44	0
8	50	45	0
8	51	46	0
8	52	47	0
8	53	48	0
8	54	49	0
8	55	50	0
8	58	51	0
8	59	52	0
8	60	53	0
8	61	54	0
8	62	55	0
8	63	56	0
8	64	57	0
8	65	58	0
8	66	59	0
8	67	60	0
8	68	61	0
8	69	62	0
8	98	63	0
8	99	64	0
8	100	65	0
8	101	66	0
8	102	67	0
8	103	68	0
8	104	69	0
8	105	70	0
8	106	71	0
8	107	72	0
8	108	73	0
8	109	74	0
8	110	75	0
8	111	76	0
8	112	77	0
8	113	78	0
8	114	79	0
8	115	80	0
8	116	81	0
8	117	82	0
8	118	83	0
8	119	84	0
8	120	85	0
8	121	86	0
8	122	87	0
8	123	88	0
8	124	89	0
8	125	90	0
5	3	2	0
5	4	3	0
5	5	4	0
5	6	5	0
5	7	6	0
5	8	7	0
5	9	8	0
5	10	9	0
5	11	10	0
5	12	11	0
5	13	12	0
5	14	13	0
5	15	14	0
5	16	15	0
5	17	16	0
5	18	17	0
5	19	18	0
5	20	19	0
5	21	20	0
5	24	21	0
5	25	22	0
5	26	23	0
5	27	24	0
5	28	25	0
5	29	26	0
5	30	27	0
5	31	28	0
5	32	29	0
5	33	30	0
5	36	31	0
5	37	32	0
5	38	33	0
5	39	34	0
5	40	35	0
5	41	36	0
5	42	37	0
5	43	38	0
5	44	39	0
5	45	40	0
5	46	41	0
5	47	42	0
5	48	43	0
5	49	44	0
5	50	45	0
5	51	46	0
5	52	47	0
5	53	48	0
5	54	49	0
5	55	50	0
5	58	51	0
5	59	52	0
5	60	53	0
5	61	54	0
5	62	55	0
5	63	56	0
5	64	57	0
5	65	58	0
5	66	59	0
5	67	60	0
5	68	61	0
5	69	62	0
5	98	63	0
5	99	64	0
5	100	65	0
5	101	66	0
5	102	67	0
5	103	68	0
5	104	69	0
5	105	70	0
5	106	71	0
5	107	72	0
5	108	73	0
5	109	74	0
5	110	75	0
5	111	76	0
5	112	77	0
5	113	78	0
5	114	79	0
5	115	80	0
5	116	81	0
5	117	82	0
5	118	83	0
5	119	84	0
5	120	85	0
5	121	86	0
5	122	87	0
5	123	88	0
5	124	89	0
5	125	90	0
3	2	1	23.410495986829
3	3	2	23.410495986829
3	4	3	23.410495986829
3	5	4	23.410495986829
3	6	5	23.410495986829
3	7	6	23.410495986829
3	8	7	23.410495986829
3	9	8	23.410495986829
3	10	9	23.410495986829
3	11	10	23.410495986829
3	12	11	23.410495986829
3	13	12	23.410495986829
3	14	13	23.410495986829
3	15	14	23.410495986829
3	16	15	23.410495986829
3	17	16	23.410495986829
3	18	17	23.410495986829
3	19	18	23.410495986829
3	20	19	23.410495986829
3	21	20	23.410495986829
3	24	21	23.410495986829
3	25	22	23.410495986829
3	26	23	23.410495986829
3	27	24	23.410495986829
3	28	25	23.410495986829
3	29	26	23.410495986829
3	30	27	23.410495986829
3	31	28	23.410495986829
3	32	29	23.410495986829
3	33	30	23.410495986829
3	36	31	23.410495986829
3	37	32	23.410495986829
3	38	33	23.410495986829
3	39	34	23.410495986829
3	40	35	23.410495986829
3	41	36	23.410495986829
3	42	37	23.410495986829
3	43	38	23.410495986829
3	44	39	23.410495986829
3	45	40	23.410495986829
3	46	41	23.410495986829
3	47	42	23.410495986829
3	48	43	23.410495986829
3	49	44	23.410495986829
3	50	45	23.410495986829
3	51	46	23.410495986829
3	52	47	23.410495986829
3	53	48	23.410495986829
3	54	49	23.410495986829
3	55	50	23.410495986829
3	58	51	23.410495986829
3	59	52	23.410495986829
3	60	53	23.410495986829
3	61	54	23.410495986829
3	62	55	23.410495986829
3	63	56	23.410495986829
3	64	57	23.410495986829
3	65	58	23.410495986829
3	66	59	23.410495986829
3	67	60	23.410495986829
3	68	61	23.410495986829
3	69	62	23.410495986829
3	98	63	23.410495986829
3	99	64	23.410495986829
3	100	65	23.410495986829
3	101	66	23.410495986829
3	102	67	23.410495986829
3	103	68	23.410495986829
3	104	69	23.410495986829
3	105	70	23.410495986829
3	106	71	23.410495986829
3	107	72	23.410495986829
3	108	73	23.410495986829
3	109	74	23.410495986829
3	110	75	23.410495986829
3	111	76	23.410495986829
3	112	77	23.410495986829
3	113	78	23.410495986829
3	114	79	23.410495986829
3	115	80	23.410495986829
3	116	81	23.410495986829
3	117	82	23.410495986829
3	118	83	23.410495986829
3	119	84	23.410495986829
3	120	85	23.410495986829
3	121	86	23.410495986829
3	122	87	23.410495986829
3	123	88	23.410495986829
3	124	89	23.410495986829
3	125	90	23.410495986829
2	2	1	208.22
2	3	2	208.22
2	4	3	208.22
2	5	4	208.22
2	6	5	208.22
2	7	6	208.22
2	8	7	208.22
2	9	8	208.22
2	10	9	208.22
2	11	10	208.22
2	12	11	208.22
2	13	12	208.22
2	14	13	208.22
2	15	14	208.22
2	16	15	208.22
2	17	16	208.22
2	18	17	208.22
2	19	18	208.22
2	20	19	208.22
2	21	20	208.22
2	24	21	208.22
2	25	22	208.22
2	26	23	208.22
2	27	24	208.22
2	28	25	208.22
2	29	26	208.22
2	30	27	208.22
2	31	28	208.22
2	32	29	208.22
2	33	30	208.22
2	36	31	208.22
2	37	32	208.22
2	38	33	208.22
2	39	34	208.22
2	40	35	208.22
2	41	36	208.22
2	42	37	208.22
2	43	38	208.22
2	44	39	208.22
2	45	40	208.22
2	46	41	208.22
2	47	42	208.22
2	48	43	208.22
2	49	44	208.22
2	50	45	208.22
2	51	46	208.22
2	52	47	208.22
2	53	48	208.22
2	54	49	208.22
2	55	50	208.22
2	58	51	208.22
2	59	52	208.22
2	60	53	208.22
2	61	54	208.22
2	62	55	208.22
2	63	56	208.22
2	64	57	208.22
2	65	58	208.22
2	66	59	208.22
2	67	60	208.22
2	68	61	208.22
2	69	62	208.22
2	98	63	208.22
2	99	64	208.22
2	100	65	208.22
2	101	66	208.22
2	102	67	208.22
2	103	68	208.22
2	104	69	208.22
2	105	70	208.22
2	106	71	208.22
2	107	72	208.22
2	108	73	208.22
2	109	74	208.22
2	110	75	208.22
2	111	76	208.22
2	112	77	208.22
2	113	78	208.22
2	114	79	208.22
2	115	80	208.22
2	116	81	208.22
2	117	82	208.22
2	118	83	208.22
2	119	84	208.22
2	120	85	208.22
2	121	86	208.22
2	122	87	208.22
2	123	88	208.22
2	124	89	208.22
2	125	90	208.22

