version 2
run Default-0-20220407-13:08:47-1128
attr configname Default
attr datetime 20220407-13:08:47
attr experiment Default
attr inifile omnetpp.ini
attr iterationvars ""
attr iterationvarsf ""
attr measurement ""
attr network FL.simulations.FL.FLScenario
attr processid 1128
attr repetition 0
attr replication #0
attr resultdir results
attr runnumber 0
attr seedset 0
param *.playgroundSizeX 2500m
param *.playgroundSizeY 2500m
param *.playgroundSizeZ 50m
param *.annotations.draw true
param *.manager.updateInterval 1s
param *.manager.host "\"localhost\""
param *.manager.port 9999
param *.manager.autoShutdown true
param *.manager.launchConfig "xmldoc(\"circles.launchd.xml\")"
param *.connectionManager.sendDirect true
param *.connectionManager.maxInterfDist 2600m
param *.connectionManager.drawMaxIntfDist false
param *.**.nic.mac1609_4.useServiceChannel false
param *.**.nic.mac1609_4.txPower 20mW
param *.**.nic.mac1609_4.bitrate 6Mbps
param *.**.nic.phy80211p.minPowerLevel -110dBm
param *.**.nic.phy80211p.useNoiseFloor true
param *.**.nic.phy80211p.noiseFloor -98dBm
param *.**.nic.phy80211p.decider "xmldoc(\"config.xml\")"
param *.**.nic.phy80211p.analogueModels "xmldoc(\"config.xml\")"
param *.**.nic.phy80211p.usePropagationDelay true
param *.**.nic.phy80211p.antenna "xmldoc(\"antenna.xml\", \"/root/Antenna[@id='monopole']\")"
param *.node[*].nic.phy80211p.antennaOffsetY "0 m"
param *.node[*].nic.phy80211p.antennaOffsetZ "1.895 m"
param *.node[*].applType "\"TraCIDemo11pRoss\""
param *.node[*].appl.headerLength "80 bit"
param *.node[*].appl.sendBeacons false
param *.node[*].appl.dataOnSch false
param *.node[*].appl.beaconInterval 1s
param *.node[*].veinsmobility.x 0
param *.node[*].veinsmobility.y 0
param *.node[*].veinsmobility.z 0
param *.node[*].veinsmobility.setHostSpeed false
param *.node[*].veinsmobility.accidentCount 0
param *.node[*].veinsmobility.accidentStart 20s
param *.node[*].veinsmobility.accidentDuration 30s

vector 0 FLScenario.node[0].veinsmobility posx ETV
vector 1 FLScenario.node[0].veinsmobility posy ETV
vector 2 FLScenario.node[0].veinsmobility speed ETV
vector 3 FLScenario.node[0].veinsmobility acceleration ETV
vector 4 FLScenario.node[0].veinsmobility co2emission ETV
vector 5 FLScenario.node[1].veinsmobility posx ETV
vector 6 FLScenario.node[1].veinsmobility posy ETV
vector 7 FLScenario.node[1].veinsmobility speed ETV
vector 8 FLScenario.node[1].veinsmobility acceleration ETV
vector 9 FLScenario.node[1].veinsmobility co2emission ETV
4	4	3	2.1732912127287
4	5	4	3.9618293141696
4	6	5	5.59568457941
4	7	6	7.6268790251924
4	8	7	0.973
4	9	8	0.973
4	10	9	4.8131183941343
4	11	10	5.9661020456919
4	12	11	5.3033545602742
4	13	12	0.973
4	14	13	0.973
4	15	14	0.973
4	16	15	4.8842348235111
4	17	16	6.7757978475128
4	18	17	8.6987600035926
4	19	18	0.973
4	20	19	0.973
4	21	20	3.5284157686899
4	22	21	6.9177927263184
4	23	22	4.8785597554605
4	24	23	0.973
4	25	24	0.973
4	26	25	0.973
4	27	26	5.345227248508
4	28	27	5.8733961758246
4	29	28	6.5674709125921
4	30	29	0.973
4	31	30	0.973
4	33	31	1.8146484598913
4	34	32	3.6895759243204
4	35	33	5.8805944898541
4	37	34	5.6134705020917
4	38	35	0.973
4	39	36	0.973
4	40	37	4.4093985977214
4	41	38	5.1963270948016
4	42	39	6.9635398163836
4	43	40	0.973
4	44	41	0.973
4	45	42	1.359242537347
4	46	43	4.7631324812494
4	47	44	5.3437397763393
4	48	45	7.9231973389188
4	49	46	0.973
4	50	47	0.973
4	51	48	4.8665017479963
4	52	49	7.0523256321622
4	53	50	5.2270476463228
4	54	51	0.973
4	55	52	0.973
4	56	53	4.4652335547884
4	57	54	4.5353970405751
4	58	55	6.6063919949083
4	59	56	0.973
4	60	57	0.973
4	61	58	0.973
4	62	59	3.0003627831836
4	63	60	4.8128493643771
4	64	61	6.9802880726954
4	65	62	5.2186673800394
4	80	63	0.973
4	81	64	0.973
4	82	65	5.1787309554745
4	83	66	7.3547289337371
4	84	67	0.973
4	85	68	0.973
4	100	69	0.973
4	101	70	5.0617346514785
4	102	71	5.3067942166478
4	103	72	7.982449178785
4	104	73	0.973
4	105	74	0.973
4	106	75	3.1232357004448
4	107	76	3.8967835782277
4	108	77	6.1383228012948
4	109	78	1.5339313059908
4	110	79	0.973
4	111	80	0.973
4	112	81	5.4920580882401
4	113	82	5.6410970246066
4	114	83	5.2170689277542
4	115	84	0.973
4	116	85	0.973
4	117	86	3.4620339940706
4	118	87	5.2262754746571
4	119	88	5.292930339313
4	120	89	4.3158887593748
4	121	90	0.973
4	122	91	0.973
4	123	92	4.7387332304061
4	124	93	4.1038703079511
3	4	3	1.3682811009465
3	5	4	2.1684262542287
3	6	5	2.3277717246674
3	7	6	2.5164690105012
3	8	7	-4.5
3	9	8	-2.1578622807411
3	10	9	2.5007992214756
3	11	10	2.304459202569
3	12	11	1.5861055656103
3	13	12	-1.0478165786447
3	14	13	-4.5
3	15	14	-0.30137337977067
3	16	15	2.3656493975548
3	17	16	2.5112010973739
3	18	17	2.5746821876615
3	19	18	-4.0981866646171
3	20	19	-2.5436036295813
3	21	20	1.4645417755703
3	22	21	2.5855512305163
3	23	22	1.3408971355064
3	24	23	-0.94585795500091
3	25	24	-4.5
3	26	25	-0.77360200521269
3	27	26	2.5865135943983
3	28	27	2.1262006659992
3	29	28	1.9475630259607
3	30	29	-2.0074035872407
3	31	30	-4.4956358122872
3	33	31	0.47052689490374
3	34	32	1.5972831639228
3	35	33	2.211610493972
3	37	34	1.6711133162532
3	38	35	-4.5
3	39	36	-1.317205095831
3	40	37	2.0555503404466
3	41	38	1.9104845921975
3	42	39	2.1639697960811
3	43	40	-1.7911630466744
3	44	41	-4.5
3	45	42	0.060889146593399
3	46	43	2.2569679071428
3	47	44	1.9485433956608
3	48	45	2.4434015628678
3	49	46	-4.368133542221
3	50	47	-2.2814959801962
3	51	48	2.3065734611824
3	52	49	2.5833849457791
3	53	50	1.4347570260055
3	54	51	-1.5670592243952
3	55	52	-4.5
3	56	53	2.0403905372834
3	57	54	1.6041181919165
3	58	55	2.0769432306988
3	59	56	-0.19739014990445
3	60	57	-4.1344717715867
3	61	58	-2.2804298492863
3	62	59	1.4596124283038
3	63	60	2.0559393584961
3	64	61	2.4212151346728
3	65	62	1.3728401698257
3	80	63	-4.0351342132548
3	81	64	-2.1384044831405
3	82	65	2.3077643562108
3	83	66	2.5672767461976
3	84	67	-0.21067908825373
3	85	68	-4.5
3	100	69	-0.2846468755044
3	101	70	2.2882420673035
3	102	71	1.8474838130409
3	103	72	2.3977003718959
3	104	73	-3.7324884308026
3	105	74	-3.5576550685277
3	106	75	1.4705581072718
3	107	76	1.5551392468857
3	108	77	2.1699089774163
3	109	78	-0.026113099875971
3	110	79	-4.0203780563548
3	111	80	-0.31553123330725
3	112	81	2.4586431079544
3	113	82	1.9267319109989
3	114	83	1.4379245832097
3	115	84	-1.9125322651752
3	116	85	-4.5
3	117	86	1.6108357550111
3	118	87	2.076519417786
3	119	88	1.6739130561706
3	120	89	1.0675851494209
3	121	90	-3.1780951843131
3	122	91	-2.6481263163865
3	123	92	2.1138634649105
3	124	93	1.3637467617635
2	3	2	1.4392818092834
2	4	3	2.8075629102299
2	5	4	4.9759891644586
2	6	5	7.303760889126
2	7	6	9.8202298996272
2	8	7	5.3202298996272
2	9	8	3.162367618886
2	10	9	5.6631668403616
2	11	10	7.9676260429306
2	12	11	9.5537316085409
2	13	12	8.5059150298962
2	14	13	4.0059150298962
2	15	14	3.7045416501256
2	16	15	6.0701910476804
2	17	16	8.5813921450542
2	18	17	11.156074332716
2	19	18	7.0578876680987
2	20	19	4.5142840385173
2	21	20	5.9788258140876
2	22	21	8.5643770446039
2	23	22	9.9052741801103
2	24	23	8.9594162251093
2	25	24	4.4594162251093
2	26	25	3.6858142198967
2	27	26	6.2723278142949
2	28	27	8.3985284802941
2	29	28	10.346091506255
2	30	29	8.3386879190142
2	31	30	3.8430521067269
2	33	31	4.3135790016307
2	34	32	5.9108621655535
2	35	33	8.1224726595255
2	37	34	9.7935859757787
2	38	35	5.2935859757787
2	39	36	3.9763808799477
2	40	37	6.0319312203944
2	41	38	7.9424158125919
2	42	39	10.106385608673
2	43	40	8.3152225619985
2	44	41	3.8152225619985
2	45	42	3.8761117085919
2	46	43	6.1330796157347
2	47	44	8.0816230113955
2	48	45	10.525024574263
2	49	46	6.1568910320423
2	50	47	3.8753950518461
2	51	48	6.1819685130285
2	52	49	8.7653534588076
2	53	50	10.200110484813
2	54	51	8.633051260418
2	55	52	4.133051260418
2	56	53	6.1734417977014
2	57	54	7.7775599896179
2	58	55	9.8545032203167
2	59	56	9.6571130704122
2	60	57	5.5226412988255
2	61	58	3.2422114495393
2	62	59	4.7018238778431
2	63	60	6.7577632363392
2	64	61	9.178978371012
2	65	62	10.551818540838
2	80	63	6.5166843275829
2	81	64	4.3782798444424
2	82	65	6.6860442006532
2	83	66	9.2533209468508
2	84	67	9.0426418585971
2	85	68	4.5426418585971
2	100	69	4.2579949830927
2	101	70	6.5462370503962
2	102	71	8.3937208634371
2	103	72	10.791421235333
2	104	73	7.0589328045305
2	105	74	3.5012777360028
2	106	75	4.9718358432746
2	107	76	6.5269750901602
2	108	77	8.6968840675766
2	109	78	8.6707709677006
2	110	79	4.6503929113458
2	111	80	4.3348616780385
2	112	81	6.7935047859929
2	113	82	8.7202366969919
2	114	83	10.158161280202
2	115	84	8.2456290150263
2	116	85	3.7456290150263
2	117	86	5.3564647700374
2	118	87	7.4329841878234
2	119	88	9.106897243994
2	120	89	10.174482393415
2	121	90	6.9963872091017
2	122	91	4.3482608927153
2	123	92	6.4621243576258
2	124	93	7.8258711193893
1	2	1	42.599730820996
1	3	2	42.599730820996
1	4	3	41.916701526308
1	5	4	40.584337216554
1	6	5	38.222918940123
1	7	6	34.756827298796
1	8	7	30.096513620992
1	9	8	27.571731571721
1	10	9	28.095549668606
1	11	10	31.541563934269
1	12	11	36.389832364525
1	13	12	42.203239657896
1	14	13	47.379054773677
1	15	14	50.299828564299
1	16	15	53.827323876656
1	17	16	59.597510854292
1	18	17	67.754789071146
1	19	18	78.359502222766
1	20	19	85.068571375976
1	21	20	87.985332516061
1	22	21	90.914124540797
1	23	22	95.10947659905
1	24	23	99.961681517477
1	25	24	104.35054776017
1	26	25	106.53504068256
1	27	26	105.85035157112
1	28	27	101.011839463
1	29	28	94.533163133348
1	30	29	86.552124752247
1	31	30	80.119609798223
1	33	31	77.15505585572
1	34	32	73.142413537669
1	35	33	67.61488789345
1	37	34	60.019181097639
1	38	35	50.860737521428
1	39	36	45.910455919277
1	40	37	43.709056065008
1	41	38	40.846527197833
1	42	39	37.077353825666
1	43	40	32.281241355117
1	44	41	28.335147848575
1	45	42	27.516547048147
1	46	43	29.872536286224
1	47	44	33.604490587417
1	48	45	38.522125714903
1	49	46	44.926560874902
1	50	47	48.673004327235
1	51	48	52.203176857001
1	52	49	58.079616977228
1	53	50	66.411764678201
1	54	51	76.107760113536
1	55	52	84.314144322674
1	56	53	87.409802939007
1	57	54	90.433929693073
1	58	55	94.243850968221
1	59	56	99.071185186823
1	60	57	103.80182572095
1	61	58	106.50715086244
1	62	59	106.23646884264
1	63	60	102.60945309398
1	64	61	97.396473126906
1	65	62	90.315752969535
1	80	63	82.176015493413
1	81	64	77.149005273707
1	82	65	73.074573835102
1	83	66	66.822138954643
1	84	67	58.168922656354
1	85	68	49.712722297603
1	100	69	45.477305615909
1	101	70	43.349194968331
1	102	71	40.242595797443
1	103	72	36.259249934121
1	104	73	31.138045186371
1	105	74	27.788139793535
1	106	75	28.024291093464
1	107	76	31.049633225422
1	108	77	35.021271339985
1	109	78	40.31329034781
1	110	79	45.589419639293
1	111	80	48.419165038849
1	112	81	52.243393982223
1	113	82	58.701146718626
1	114	83	66.990407441337
1	115	84	76.646526906992
1	116	85	84.484636250043
1	117	86	87.307879532254
1	118	87	89.931801316745
1	119	88	93.572928435384
1	120	89	98.034039838806
1	121	90	103.01811929124
1	122	91	106.44537469174
1	123	92	105.48053728894
1	124	93	100.49561496436
0	2	1	43.589098250336
0	3	2	43.589098250336
0	4	3	44.855976182061
0	5	4	47.327236132654
0	6	5	51.707178142823
0	7	6	58.13606054052
0	8	7	66.779977571954
0	9	8	71.462925558975
0	10	9	74.267615487593
0	11	10	78.762063338798
0	12	11	85.085394569769
0	13	12	92.667503610417
0	14	13	99.418036060952
0	15	14	101.75849450687
0	16	15	100.63314314738
0	17	16	98.748334968194
0	18	17	96.083793114935
0	19	18	92.619806564137
0	20	19	90.428316329294
0	21	20	87.292844679648
0	22	21	82.080909545355
0	23	22	74.615066082089
0	24	23	65.980319374385
0	25	24	58.170107527038
0	26	25	54.282690695572
0	27	26	51.208884697158
0	28	27	47.217851288219
0	29	28	41.873932930766
0	30	29	35.290795365906
0	31	30	29.984953092221
0	33	31	27.539648923761
0	34	32	28.013726124585
0	35	33	30.109922419297
0	37	34	32.990432337465
0	38	35	36.46357687364
0	39	36	38.34086566796
0	40	37	41.531529590145
0	41	38	46.840927999482
0	42	39	53.831964259826
0	43	40	62.727759936908
0	44	41	70.046946418129
0	45	42	73.507399040887
0	46	43	76.585241901608
0	47	44	81.452625695381
0	48	45	87.866428114012
0	49	46	96.219382461842
0	50	47	101.10566366264
0	51	48	101.16366418573
0	52	49	99.244148848354
0	53	50	96.522486587171
0	54	51	93.355328993713
0	55	52	90.674746867191
0	56	53	88.317028984351
0	57	54	82.935440825495
0	58	55	76.155491144831
0	59	56	67.565003118911
0	60	57	59.146586447709
0	61	58	54.332322056258
0	62	59	51.527372466942
0	63	60	48.535638499108
0	64	61	44.235726306308
0	65	62	38.395213752875
0	80	63	31.68117367583
0	81	64	27.534658117823
0	82	65	28.039452885944
0	83	66	30.410555558811
0	84	67	33.692103417533
0	85	68	36.898937180104
0	100	69	38.537251349659
0	101	70	42.19899742119
0	102	71	47.961095713194
0	103	72	55.349377603757
0	104	73	64.848152150066
0	105	74	71.061533111254
0	106	75	74.174676827088
0	107	76	78.120465032213
0	108	77	83.30045530899
0	109	78	90.202546137592
0	110	79	97.083912878606
0	111	80	100.77459496812
0	112	81	101.15052742485
0	113	82	99.041128678516
0	114	83	96.333475274884
0	115	84	93.179343005232
0	116	85	90.61905637043
0	117	86	88.498406897217
0	118	87	83.829003941074
0	119	88	77.349432091048
0	120	89	69.410656286853
0	121	90	60.541232104174
0	122	91	54.442255910166
0	123	92	50.903844403301
0	124	93	46.79204492987
9	7	6	3.6572242613183
9	8	7	5.172885581409
9	9	8	5.1292193310507
9	10	9	0.973
9	11	10	0.973
9	12	11	0.973
9	13	12	4.0333052236494
9	14	13	4.3117761554636
9	15	14	6.0100287788323
9	16	15	0.973
9	17	16	0.973
9	18	17	0.973
9	19	18	4.0115480794034
9	20	19	4.3250686280165
9	21	20	4.4372576861817
9	22	21	3.3165235883064
9	23	22	0.973
9	24	23	0.973
9	25	24	4.4437089829234
9	26	25	4.2889055440989
9	27	26	7.0900476020881
9	28	27	0.973
9	29	28	0.973
9	30	29	0.973
9	31	30	5.0994518501276
9	33	31	5.8187140700714
9	34	32	7.8407934272155
9	35	33	0.973
9	37	34	0.973
9	38	35	0.973
9	39	36	4.0872812117398
9	40	37	4.29223874552
9	41	38	4.7614169323588
9	42	39	0.973
9	43	40	0.973
9	44	41	3.3203770714571
9	45	42	5.0742664252925
9	46	43	5.0878414451438
9	47	44	0.973
9	48	45	0.973
9	49	46	0.973
9	50	47	4.5243877016031
9	51	48	6.7429133107655
9	52	49	6.5375136707188
9	53	50	0.973
9	54	51	0.973
9	55	52	2.959012074507
9	56	53	5.8735319346427
9	57	54	4.7720815858114
9	58	55	2.4073934523036
9	59	56	0.973
9	60	57	0.973
9	61	58	4.0269352837153
9	62	59	3.8029137337302
9	63	60	5.5806413886015
9	64	61	8.2731460518304
9	65	62	0.973
9	80	63	0.973
9	81	64	4.0335524828961
9	82	65	5.3599433913001
9	83	66	6.0684570154343
9	84	67	2.6259593990907
9	85	68	0.973
9	100	69	0.973
9	101	70	3.1642224472082
9	102	71	5.2459010553576
9	103	72	6.979589610814
9	104	73	0.973
9	105	74	0.973
9	106	75	3.2075488606021
9	107	76	3.9078855855791
9	108	77	4.7860187958666
9	109	78	0.973
9	110	79	0.973
9	111	80	0.973
9	112	81	3.4459346903558
9	113	82	5.3768702133057
9	114	83	5.3382718011532
9	115	84	0.973
9	116	85	0.973
9	117	86	0.973
9	118	87	3.9293438042524
9	119	88	6.2035357830627
9	120	89	5.518741960945
9	121	90	0.973
9	122	91	0.973
9	123	92	2.1631554503471
9	124	93	4.6519230092009
8	7	6	2.5457943856018
8	8	7	2.4600463207811
8	9	8	1.8264323099284
8	10	9	-2.1254238670401
8	11	10	-0.208558369416
8	12	11	-2.4121171182532
8	13	12	2.0300680076936
8	14	13	1.6594952662708
8	15	14	2.0077396200271
8	16	15	-2.8877315542169
8	17	16	-0.34696224791018
8	18	17	-2.392605632489
8	19	18	1.9978159122868
8	20	19	1.6575858970871
8	21	20	1.3958321520127
8	22	21	0.75585775031185
8	23	22	-3.54419832977
8	24	23	-1.8689060345164
8	25	24	2.1092279310804
8	26	25	1.5386003302643
8	27	26	2.2974531752989
8	28	27	-0.49373055472753
8	29	28	-3.4167063417379
8	30	29	-2.5663658059047
8	31	30	2.5901939699426
8	33	31	2.1889083944727
8	34	32	2.4152555802604
8	35	33	-1.8111951791965
8	37	34	-4.5
8	38	35	-0.69613893886562
8	39	36	2.024080570112
8	40	37	1.6265549525851
8	41	38	1.5185152296908
8	42	39	-1.1154463329056
8	43	40	-3.805018600069
8	44	41	1.5272279287223
8	45	42	2.0304161521606
8	46	43	1.6184831429971
8	47	44	-0.78339726178003
8	48	45	-3.093674777681
8	49	46	-1.5496660064648
8	50	47	2.251029318152
8	51	48	2.5793165331706
8	52	49	1.9501527519198
8	53	50	-2.314113104198
8	54	51	-4.5
8	55	52	1.3756513528526
8	56	53	2.4793437642744
8	57	54	1.4939663887955
8	58	55	0.35472375994646
8	59	56	-3.1357125103939
8	60	57	-2.4847710955915
8	61	58	1.978090670798
8	62	59	1.3956300874939
8	63	60	1.8780365827261
8	64	61	2.4043708363337
8	65	62	-4.5
8	80	63	-3.507157117206
8	81	64	2.0853483918821
8	82	65	2.1508517645532
8	83	66	1.9569491316332
8	84	67	0.4051791897536
8	85	68	-4.4768030150328
8	100	69	-2.2468279338053
8	101	70	1.6113100742921
8	102	71	2.2547640341101
8	103	72	2.3801559150219
8	104	73	-0.65324038682523
8	105	74	-4.2721580573823
8	106	75	1.3127084472915
8	107	76	1.4115459870081
8	108	77	1.534184344043
8	109	78	-0.27965420076397
8	110	79	-3.807293232251
8	111	80	-1.2741864024523
8	112	81	1.7233704460086
8	113	82	2.2254107195418
8	114	83	1.7259875517804
8	115	84	-1.4961528449961
8	116	85	-3.1222270877211
8	117	86	-0.47270228714973
8	118	87	1.8360343949171
8	119	88	2.3853873982094
8	120	89	1.6421129219932
8	121	90	-1.5831700297369
8	122	91	-4.4788566940255
8	123	92	0.77426221915763
8	124	93	2.0460806945339
7	6	5	1.2953648990485
7	7	6	3.8411592846503
7	8	7	6.3012056054314
7	9	8	8.1276379153598
7	10	9	6.0022140483197
7	11	10	5.7936556789037
7	12	11	3.3815385606504
7	13	12	5.411606568344
7	14	13	7.0711018346149
7	15	14	9.078841454642
7	16	15	6.1911099004251
7	17	16	5.8441476525149
7	18	17	3.4515420200259
7	19	18	5.4493579323126
7	20	19	7.1069438293997
7	21	20	8.5027759814125
7	22	21	9.2586337317243
7	23	22	5.7144354019543
7	24	23	3.8455293674379
7	25	24	5.9547572985183
7	26	25	7.4933576287826
7	27	26	9.7908108040815
7	28	27	9.297080249354
7	29	28	5.8803739076161
7	30	29	3.3140081017114
7	31	30	5.904202071654
7	33	31	8.0931104661267
7	34	32	10.508366046387
7	35	33	8.6971708671906
7	37	34	4.1971708671906
7	38	35	3.501031928325
7	39	36	5.525112498437
7	40	37	7.1516674510221
7	41	38	8.670182680713
7	42	39	7.5547363478074
7	43	40	3.7497177477384
7	44	41	5.2769456764606
7	45	42	7.3073618286213
7	46	43	8.9258449716184
7	47	44	8.1424477098384
7	48	45	5.0487729321574
7	49	46	3.4991069256925
7	50	47	5.7501362438445
7	51	48	8.3294527770152
7	52	49	10.279605528935
7	53	50	7.9654924247369
7	54	51	3.4654924247369
7	55	52	4.8411437775895
7	56	53	7.3204875418639
7	57	54	8.8144539306594
7	58	55	9.1691776906059
7	59	56	6.0334651802119
7	60	57	3.5486940846205
7	61	58	5.5267847554184
7	62	59	6.9224148429124
7	63	60	8.8004514256384
7	64	61	11.204822261972
7	65	62	6.7048222619721
7	80	63	3.1976651447661
7	81	64	5.2830135366482
7	82	65	7.4338653012015
7	83	66	9.3908144328346
7	84	67	9.7959936225882
7	85	68	5.3191906075554
7	100	69	3.0723626737501
7	101	70	4.6836727480422
7	102	71	6.9384367821523
7	103	72	9.3185926971742
7	104	73	8.665352310349
7	105	74	4.3931942529667
7	106	75	5.7059027002582
7	107	76	7.1174486872663
7	108	77	8.6516330313094
7	109	78	8.3719788305454
7	110	79	4.5646855982944
7	111	80	3.2904991958422
7	112	81	5.0138696418508
7	113	82	7.2392803613926
7	114	83	8.9652679131731
7	115	84	7.469115068177
7	116	85	4.3468879804558
7	117	86	3.8741856933061
7	118	87	5.7102200882232
7	119	88	8.0956074864326
7	120	89	9.7377204084259
7	121	90	8.154550378689
7	122	91	3.6756936846634
7	123	92	4.4499559038211
7	124	93	6.4960365983549
6	5	4	42.599730820996
6	6	5	42.599730820996
6	7	6	41.984999107127
6	8	7	40.162128630993
6	9	8	37.171812215818
6	10	9	33.314739363926
6	11	10	30.466313154723
6	12	11	27.71686094425
6	13	12	28.042825804768
6	14	13	31.335766655769
6	15	14	35.638503707831
6	16	15	41.16294225084
6	17	16	44.93020774708
6	18	17	48.486348109689
6	19	18	51.508681942453
6	20	19	56.688718934785
6	21	20	63.444419770736
6	22	21	71.526967231982
6	23	22	80.328016057277
6	24	23	85.760029725694
6	25	24	88.014064828409
6	26	25	90.93106663235
6	27	26	94.601768329323
6	28	27	99.397902133912
6	29	28	103.95217672467
6	30	29	106.83274102586
6	31	30	105.66836273102
6	33	31	101.11382507638
6	34	32	94.870750074229
6	35	33	86.764532118572
6	37	34	80.055481221807
6	38	35	76.800807639651
6	39	36	73.493370747058
6	40	37	68.326577787431
6	41	38	61.638716672208
6	42	39	53.530820435515
6	43	40	46.466030608207
6	44	41	44.098561463153
6	45	42	41.594320486679
6	46	43	38.1265199742
6	47	44	33.890647919028
6	48	45	30.026546892798
6	49	46	27.630588163486
6	50	47	28.224986793725
6	51	48	31.723921591931
6	52	49	36.792360135925
6	53	50	43.047458793026
6	54	51	47.894428925185
6	55	52	50.597261257605
6	56	53	55.199143564586
6	57	54	62.157834247007
6	58	55	70.536655751333
6	59	56	79.252669677482
6	60	57	84.987945872156
6	61	58	87.470779198502
6	62	59	90.178134056702
6	63	60	93.569153299321
6	64	61	97.880148928054
6	65	62	103.36895142873
6	80	63	106.6533806091
6	81	64	106.04055745937
6	82	65	101.96520844681
6	83	66	96.230679204247
6	84	67	88.986547410812
6	85	68	81.429857907763
6	100	69	77.326601681039
6	101	70	74.511092050476
6	102	71	70.131169037755
6	103	72	63.642709965296
6	104	73	54.928454978631
6	105	74	46.825075848802
6	106	75	43.975397615372
6	107	76	41.267589685209
6	108	77	37.88991484385
6	109	78	33.784173515667
6	110	79	29.811145607659
6	111	80	27.644916614444
6	112	81	28.079677531185
6	113	82	31.130597060669
6	114	83	35.535670070472
6	115	84	40.990999569877
6	116	85	45.535926075197
6	117	86	48.180989943901
6	118	87	51.433414471364
6	119	88	56.861421157429
6	120	89	64.556923412193
6	121	90	73.813381248728
6	122	91	81.564913290141
6	123	92	85.058944971587
6	124	93	87.948859917213
5	5	4	43.589098250336
5	6	5	43.589098250336
5	7	6	44.729298309526
5	8	7	48.110345647563
5	9	8	53.656763502142
5	10	9	60.810835099242
5	11	10	66.094075997763
5	12	11	71.19374061957
5	13	12	74.198850636879
5	14	13	78.493653209058
5	15	14	84.10547771328
5	16	15	91.310700624326
5	17	16	96.224138877677
5	18	17	100.86221817136
5	19	18	101.39051813352
5	20	19	99.69848005408
5	21	20	97.491757769152
5	22	21	94.851626414193
5	23	22	91.976799502059
5	24	23	90.202454263096
5	25	24	87.241714060965
5	26	25	82.050760227319
5	27	26	75.51855890323
5	28	27	66.983593609078
5	29	28	58.879029150321
5	30	29	53.752917715585
5	31	30	51.05877170278
5	33	31	47.301973841005
5	34	32	42.152390590759
5	35	33	35.465998998007
5	37	34	29.932056812285
5	38	35	27.284307658152
5	39	36	27.880633082729
5	40	37	29.840029194956
5	41	38	32.376257987299
5	42	39	35.45100483484
5	43	40	38.130175807916
5	44	41	40.809077717237
5	45	42	45.453926266908
5	46	43	51.885978266798
5	47	44	59.74264396187
5	48	45	66.9097513673
5	49	46	71.353758766534
5	50	47	74.436433247477
5	51	48	78.999902453628
5	52	49	85.610389516902
5	53	50	93.768572435244
5	54	51	100.09021036705
5	55	52	101.68823000458
5	56	53	100.1850438088
5	57	54	97.912015713608
5	58	55	95.175107643814
5	59	56	92.328057036686
5	60	57	90.454652323195
5	61	58	88.20851861334
5	62	59	83.390642237251
5	63	60	77.356150138665
5	64	61	69.684513029777
5	65	62	59.916908380201
5	80	63	54.072098746505
5	81	64	51.365775501108
5	82	65	48.004235073233
5	83	66	43.274124394542
5	84	67	37.298822202401
5	85	68	31.065707642859
5	100	69	27.681148026111
5	101	70	27.494683968679
5	102	71	29.155676423774
5	103	72	31.616286241172
5	104	73	34.920981721568
5	105	74	37.994015552603
5	106	75	41.037521155833
5	107	76	46.059944259425
5	108	77	52.324831798418
5	109	78	59.940131936341
5	110	79	67.309276155959
5	111	80	71.327182456477
5	112	81	74.246914327229
5	113	82	78.226061732429
5	114	83	83.971357426818
5	115	84	91.086445193731
5	116	85	97.014144149962
5	117	86	100.463956224
5	118	87	101.41510394775
5	119	88	99.642067573329
5	120	89	97.12836296567
5	121	90	94.104778546615
5	122	91	91.572772036337
5	123	92	90.431460755254
5	124	93	87.357749533857

