version 2
run Default-0-20220517-09:25:32-341
attr configname Default
attr datetime 20220517-09:25:32
attr experiment Default
attr inifile omnetpp.ini
attr iterationvars ""
attr iterationvarsf ""
attr measurement ""
attr network FLScenario
attr processid 341
attr repetition 0
attr replication #0
attr resultdir results
attr runnumber 0
attr seedset 0
param *.playgroundSizeX 2500m
param *.playgroundSizeY 2500m
param *.playgroundSizeZ 50m
param *.annotations.draw true
param *.manager.updateInterval 1s
param *.manager.host "\"localhost\""
param *.manager.port 9999
param *.manager.autoShutdown true
param *.manager.launchConfig "xmldoc(\"Town01.launchd.xml\")"
param *.connectionManager.sendDirect true
param *.connectionManager.maxInterfDist 2600m
param *.connectionManager.drawMaxIntfDist false
param *.**.nic.mac1609_4.useServiceChannel false
param *.**.nic.mac1609_4.txPower 20mW
param *.**.nic.mac1609_4.bitrate 6Mbps
param *.**.nic.phy80211p.minPowerLevel -110dBm
param *.**.nic.phy80211p.useNoiseFloor true
param *.**.nic.phy80211p.noiseFloor -98dBm
param *.**.nic.phy80211p.decider "xmldoc(\"config.xml\")"
param *.**.nic.phy80211p.analogueModels "xmldoc(\"config.xml\")"
param *.**.nic.phy80211p.usePropagationDelay true
param *.**.nic.phy80211p.antenna "xmldoc(\"antenna.xml\", \"/root/Antenna[@id='monopole']\")"
param *.node[*].nic.phy80211p.antennaOffsetY "0 m"
param *.node[*].nic.phy80211p.antennaOffsetZ "1.895 m"
param *.node[*].applType "\"CarAppLayer\""
param *.node[*].appl.headerLength "80 bit"
param *.node[*].appl.sendBeacons false
param *.node[*].appl.dataOnSch false
param *.node[*].appl.beaconInterval 1s
param *.node[*].veinsmobility.x 0
param *.node[*].veinsmobility.y 0
param *.node[*].veinsmobility.z 0
param *.node[*].veinsmobility.setHostSpeed false
param *.node[*].veinsmobility.accidentCount 0
param *.node[*].veinsmobility.accidentStart 20s
param *.node[*].veinsmobility.accidentDuration 30s

vector 0 FLScenario.node[0].veinsmobility posx ETV
vector 1 FLScenario.node[0].veinsmobility posy ETV
vector 2 FLScenario.node[1].veinsmobility posx ETV
vector 3 FLScenario.node[1].veinsmobility posy ETV
vector 4 FLScenario.node[0].veinsmobility speed ETV
vector 5 FLScenario.node[2].veinsmobility posx ETV
vector 6 FLScenario.node[2].veinsmobility posy ETV
vector 7 FLScenario.node[0].veinsmobility acceleration ETV
vector 8 FLScenario.node[0].veinsmobility co2emission ETV
vector 9 FLScenario.node[1].veinsmobility speed ETV
vector 10 FLScenario.node[3].veinsmobility posx ETV
vector 11 FLScenario.node[3].veinsmobility posy ETV
vector 12 FLScenario.node[1].veinsmobility acceleration ETV
vector 13 FLScenario.node[1].veinsmobility co2emission ETV
vector 14 FLScenario.node[2].veinsmobility speed ETV
vector 15 FLScenario.node[4].veinsmobility posx ETV
vector 16 FLScenario.node[4].veinsmobility posy ETV
vector 17 FLScenario.node[2].veinsmobility acceleration ETV
vector 18 FLScenario.node[2].veinsmobility co2emission ETV
vector 19 FLScenario.node[3].veinsmobility speed ETV
vector 20 FLScenario.node[3].veinsmobility acceleration ETV
vector 21 FLScenario.node[3].veinsmobility co2emission ETV
vector 22 FLScenario.node[4].veinsmobility speed ETV
vector 23 FLScenario.node[5].veinsmobility posx ETV
vector 24 FLScenario.node[5].veinsmobility posy ETV
vector 25 FLScenario.node[6].veinsmobility posx ETV
vector 26 FLScenario.node[6].veinsmobility posy ETV
vector 27 FLScenario.node[4].veinsmobility acceleration ETV
vector 28 FLScenario.node[4].veinsmobility co2emission ETV
vector 29 FLScenario.node[7].veinsmobility posx ETV
vector 30 FLScenario.node[7].veinsmobility posy ETV
vector 31 FLScenario.node[5].veinsmobility speed ETV
vector 32 FLScenario.node[6].veinsmobility speed ETV
vector 33 FLScenario.node[8].veinsmobility posx ETV
vector 34 FLScenario.node[8].veinsmobility posy ETV
vector 35 FLScenario.node[5].veinsmobility acceleration ETV
vector 36 FLScenario.node[5].veinsmobility co2emission ETV
vector 37 FLScenario.node[6].veinsmobility acceleration ETV
vector 38 FLScenario.node[6].veinsmobility co2emission ETV
vector 39 FLScenario.node[7].veinsmobility speed ETV
vector 40 FLScenario.node[9].veinsmobility posx ETV
vector 41 FLScenario.node[9].veinsmobility posy ETV
vector 42 FLScenario.node[7].veinsmobility acceleration ETV
vector 43 FLScenario.node[7].veinsmobility co2emission ETV
vector 44 FLScenario.node[8].veinsmobility speed ETV
vector 45 FLScenario.node[10].veinsmobility posx ETV
vector 46 FLScenario.node[10].veinsmobility posy ETV
vector 47 FLScenario.node[8].veinsmobility acceleration ETV
vector 48 FLScenario.node[8].veinsmobility co2emission ETV
vector 49 FLScenario.node[9].veinsmobility speed ETV
vector 50 FLScenario.node[11].veinsmobility posx ETV
vector 51 FLScenario.node[11].veinsmobility posy ETV
vector 52 FLScenario.node[9].veinsmobility acceleration ETV
vector 53 FLScenario.node[9].veinsmobility co2emission ETV
vector 54 FLScenario.node[10].veinsmobility speed ETV
vector 55 FLScenario.node[12].veinsmobility posx ETV
vector 56 FLScenario.node[12].veinsmobility posy ETV
vector 57 FLScenario.node[10].veinsmobility acceleration ETV
vector 58 FLScenario.node[10].veinsmobility co2emission ETV
vector 59 FLScenario.node[11].veinsmobility speed ETV
vector 60 FLScenario.node[13].veinsmobility posx ETV
vector 61 FLScenario.node[13].veinsmobility posy ETV
vector 62 FLScenario.node[11].veinsmobility acceleration ETV
vector 63 FLScenario.node[11].veinsmobility co2emission ETV
vector 64 FLScenario.node[12].veinsmobility speed ETV
vector 65 FLScenario.node[14].veinsmobility posx ETV
vector 66 FLScenario.node[14].veinsmobility posy ETV
vector 67 FLScenario.node[12].veinsmobility acceleration ETV
vector 68 FLScenario.node[12].veinsmobility co2emission ETV
vector 69 FLScenario.node[13].veinsmobility speed ETV
vector 70 FLScenario.node[15].veinsmobility posx ETV
vector 71 FLScenario.node[15].veinsmobility posy ETV
vector 72 FLScenario.node[13].veinsmobility acceleration ETV
vector 73 FLScenario.node[13].veinsmobility co2emission ETV
vector 74 FLScenario.node[14].veinsmobility speed ETV
vector 75 FLScenario.node[16].veinsmobility posx ETV
vector 76 FLScenario.node[16].veinsmobility posy ETV
vector 77 FLScenario.node[14].veinsmobility acceleration ETV
vector 78 FLScenario.node[14].veinsmobility co2emission ETV
vector 79 FLScenario.node[15].veinsmobility speed ETV
vector 80 FLScenario.node[17].veinsmobility posx ETV
vector 81 FLScenario.node[17].veinsmobility posy ETV
vector 82 FLScenario.node[15].veinsmobility acceleration ETV
vector 83 FLScenario.node[15].veinsmobility co2emission ETV
vector 84 FLScenario.node[16].veinsmobility speed ETV
36	10	9	4.4385591997275
36	11	10	3.8976627875137
36	12	11	4.795356571267
36	13	12	6.4901877503749
36	14	13	6.30798961731
36	15	14	0.973
36	16	15	0.973
36	17	16	7.106003668624
36	18	17	8.0309021751322
36	19	18	7.4149280206793
35	10	9	2.5068282209337
35	11	10	1.5316289365292
35	12	11	1.6287257336313
35	13	12	1.949986792868
35	14	13	1.5787855621893
35	15	14	-2.7666509242854
35	16	15	-0.19708031688351
35	17	16	2.0465621652314
35	18	17	1.9749580422416
35	19	18	1.5410411437973
31	9	8	2.5767042224528
31	10	9	5.0835324433865
31	11	10	6.6151613799157
31	12	11	8.243887113547
31	13	12	10.193873906415
31	14	13	11.772659468604
31	15	14	9.0060085443189
31	16	15	8.8089282274354
31	17	16	10.855490392667
31	18	17	12.830448434908
31	19	18	14.371489578706
24	8	7	140.98705224377
24	9	8	140.98705224377
24	10	9	138.40984943304
24	11	10	133.32533333399
24	12	11	126.70889193059
24	13	12	118.46340963765
24	14	13	108.26756323241
24	15	14	96.492625772423
24	16	15	87.815961581017
24	17	16	84.549937397249
24	18	17	84.547447605875
24	19	18	84.544504842472
23	8	7	117.44924493176
23	9	8	117.44924493176
23	10	9	117.44874634348
23	11	10	117.44776268782
23	12	11	117.44648266433
23	13	12	117.44488748494
23	14	13	117.44291498612
23	15	14	117.44063699473
23	16	15	119.00030440151
23	17	16	126.72294799406
23	18	17	137.57843838673
23	19	18	150.40888682164
vector 85 FLScenario.node[18].veinsmobility posx ETV
vector 86 FLScenario.node[18].veinsmobility posy ETV
vector 87 FLScenario.node[16].veinsmobility acceleration ETV
vector 88 FLScenario.node[16].veinsmobility co2emission ETV
vector 89 FLScenario.node[17].veinsmobility speed ETV
vector 90 FLScenario.node[19].veinsmobility posx ETV
vector 91 FLScenario.node[19].veinsmobility posy ETV
vector 92 FLScenario.node[17].veinsmobility acceleration ETV
vector 93 FLScenario.node[17].veinsmobility co2emission ETV
vector 94 FLScenario.node[18].veinsmobility speed ETV
vector 95 FLScenario.node[20].veinsmobility posx ETV
vector 96 FLScenario.node[20].veinsmobility posy ETV
vector 97 FLScenario.node[18].veinsmobility acceleration ETV
vector 98 FLScenario.node[18].veinsmobility co2emission ETV
vector 99 FLScenario.node[19].veinsmobility speed ETV
vector 100 FLScenario.node[21].veinsmobility posx ETV
vector 101 FLScenario.node[21].veinsmobility posy ETV
vector 102 FLScenario.node[19].veinsmobility acceleration ETV
vector 103 FLScenario.node[19].veinsmobility co2emission ETV
vector 104 FLScenario.node[20].veinsmobility speed ETV
vector 105 FLScenario.node[22].veinsmobility posx ETV
vector 106 FLScenario.node[22].veinsmobility posy ETV
vector 107 FLScenario.node[20].veinsmobility acceleration ETV
vector 108 FLScenario.node[20].veinsmobility co2emission ETV
vector 109 FLScenario.node[21].veinsmobility speed ETV
vector 110 FLScenario.node[23].veinsmobility posx ETV
vector 111 FLScenario.node[23].veinsmobility posy ETV
vector 112 FLScenario.node[21].veinsmobility acceleration ETV
vector 113 FLScenario.node[21].veinsmobility co2emission ETV
vector 114 FLScenario.node[22].veinsmobility speed ETV
vector 115 FLScenario.node[22].veinsmobility acceleration ETV
vector 116 FLScenario.node[22].veinsmobility co2emission ETV
vector 117 FLScenario.node[23].veinsmobility speed ETV
vector 118 FLScenario.node[24].veinsmobility posx ETV
vector 119 FLScenario.node[24].veinsmobility posy ETV
vector 120 FLScenario.node[25].veinsmobility posx ETV
vector 121 FLScenario.node[25].veinsmobility posy ETV
vector 122 FLScenario.node[23].veinsmobility acceleration ETV
vector 123 FLScenario.node[23].veinsmobility co2emission ETV
vector 124 FLScenario.node[26].veinsmobility posx ETV
vector 125 FLScenario.node[26].veinsmobility posy ETV
vector 126 FLScenario.node[24].veinsmobility speed ETV
vector 127 FLScenario.node[25].veinsmobility speed ETV
vector 128 FLScenario.node[27].veinsmobility posx ETV
vector 129 FLScenario.node[27].veinsmobility posy ETV
vector 130 FLScenario.node[24].veinsmobility acceleration ETV
vector 131 FLScenario.node[24].veinsmobility co2emission ETV
vector 132 FLScenario.node[25].veinsmobility acceleration ETV
vector 133 FLScenario.node[25].veinsmobility co2emission ETV
vector 134 FLScenario.node[26].veinsmobility speed ETV
vector 135 FLScenario.node[26].veinsmobility acceleration ETV
vector 136 FLScenario.node[26].veinsmobility co2emission ETV
vector 137 FLScenario.node[27].veinsmobility speed ETV
vector 138 FLScenario.node[28].veinsmobility posx ETV
vector 139 FLScenario.node[28].veinsmobility posy ETV
vector 140 FLScenario.node[27].veinsmobility acceleration ETV
vector 141 FLScenario.node[27].veinsmobility co2emission ETV
vector 142 FLScenario.node[28].veinsmobility speed ETV
vector 143 FLScenario.node[29].veinsmobility posx ETV
vector 144 FLScenario.node[29].veinsmobility posy ETV
vector 145 FLScenario.node[30].veinsmobility posx ETV
vector 146 FLScenario.node[30].veinsmobility posy ETV
vector 147 FLScenario.node[28].veinsmobility acceleration ETV
vector 148 FLScenario.node[28].veinsmobility co2emission ETV
vector 149 FLScenario.node[31].veinsmobility posx ETV
vector 150 FLScenario.node[31].veinsmobility posy ETV
vector 151 FLScenario.node[32].veinsmobility posx ETV
vector 152 FLScenario.node[32].veinsmobility posy ETV
vector 153 FLScenario.node[29].veinsmobility speed ETV
vector 154 FLScenario.node[30].veinsmobility speed ETV
vector 155 FLScenario.node[33].veinsmobility posx ETV
vector 156 FLScenario.node[33].veinsmobility posy ETV
vector 157 FLScenario.node[29].veinsmobility acceleration ETV
vector 158 FLScenario.node[29].veinsmobility co2emission ETV
vector 159 FLScenario.node[30].veinsmobility acceleration ETV
vector 160 FLScenario.node[30].veinsmobility co2emission ETV
vector 161 FLScenario.node[31].veinsmobility speed ETV
vector 162 FLScenario.node[32].veinsmobility speed ETV
116	26	25	3.7762036750834
116	27	26	5.5733402741613
116	28	27	7.6390850905071
116	29	28	0.973
116	30	29	3.8271076563386
116	31	30	2.4794148202974
116	32	31	2.9441771573791
116	33	32	5.7255906682055
116	34	33	5.4367865076044
116	35	34	6.829735235903
115	26	25	2.1889083944727
115	27	26	2.4152555802604
115	28	27	2.5826813858701
115	29	28	-4.3499834809867
115	30	29	1.4596124283038
115	31	30	0.55978622121224
115	32	31	0.72564783934504
115	33	32	1.7301737446804
115	34	33	1.3689486144111
115	35	34	1.6049023136962
114	25	24	2.4260216072435
114	26	25	4.6149300017161
114	27	26	7.0301855819765
114	28	27	9.6128669678466
114	29	28	5.26288348686
114	30	29	6.7224959151638
114	31	30	7.282282136376
114	32	31	8.0079299757211
114	33	32	9.7381037204014
114	34	33	11.107052334812
114	35	34	12.711954648509
106	24	23	40.86953619724
106	25	24	40.86953619724
106	26	25	43.294874225558
106	27	26	47.908503880697
106	28	27	54.936708570709
106	29	28	64.546866925716
106	30	29	69.808267492461
106	31	30	76.331211466276
106	32	31	80.219302230987
106	33	32	80.541330406419
106	34	33	80.543563916447
106	35	34	80.546111405514
105	24	23	179.12279941348
105	25	24	179.12279941348
105	26	25	179.11938151885
105	27	26	179.11287978596
105	28	27	179.10297532614
105	29	28	179.08943226194
105	30	29	179.08201766137
105	31	30	177.91692529965
105	32	31	172.23406239241
105	33	32	164.24942801255
105	34	33	154.51132429215
105	35	34	143.40427195734
vector 163 FLScenario.node[34].veinsmobility posx ETV
vector 164 FLScenario.node[34].veinsmobility posy ETV
vector 165 FLScenario.node[31].veinsmobility acceleration ETV
vector 166 FLScenario.node[31].veinsmobility co2emission ETV
vector 167 FLScenario.node[32].veinsmobility acceleration ETV
vector 168 FLScenario.node[32].veinsmobility co2emission ETV
vector 169 FLScenario.node[33].veinsmobility speed ETV
108	24	23	4.1241863887608
108	25	24	3.9249027333988
108	26	25	5.792753061408
108	27	26	8.3437380155898
108	28	27	6.3586923716979
108	29	28	0.973
108	30	29	2.6117015380858
108	31	30	3.7115637428202
108	32	31	0.973
108	33	32	3.8846722522085
108	34	33	2.6033404892424
108	35	34	2.1732033339282
108	36	35	0.973
107	24	23	2.3455069887917
107	25	24	1.5858694023918
107	26	25	2.0496117572067
107	27	26	2.4794851154555
107	28	27	1.4832068915997
107	29	28	-0.27934064946603
107	30	29	0.24066877767909
107	31	30	0.56403360827826
107	32	31	-1.1989479892189
107	33	32	0.66245939082
107	34	33	0.22553431093693
107	35	34	0.082057493203319
107	36	35	-0.29231711975299
104	23	22	2.5498698164476
104	24	23	4.8953768052394
104	25	24	6.4812462076312
104	26	25	8.5308579648379
104	27	26	11.010343080293
104	28	27	12.493549971893
104	29	28	12.214209322427
104	30	29	12.454878100106
104	31	30	13.018911708384
104	32	31	11.819963719166
104	33	32	12.482423109986
104	34	33	12.707957420923
104	35	34	12.790014914126
104	36	35	12.497697794373
96	22	21	23.04
96	23	22	23.04
96	24	23	23.04
96	25	24	23.03
96	26	25	23.03
96	27	26	23.03
96	28	27	23.02
96	29	28	23.02
96	30	29	23.02
96	31	30	23.02
96	32	31	23.01
96	33	32	23.01
96	34	33	23.01
96	35	34	23.01
96	36	35	23.01
95	22	21	348.38750099566
95	23	22	348.38750099566
95	24	23	345.83762870154
95	25	24	340.94229868457
95	26	25	334.46104617921
95	27	26	325.93017992508
95	28	27	314.91987769123
95	29	28	302.42631557956
95	30	29	290.21209438878
95	31	30	277.75720418647
95	32	31	264.73832982657
95	33	32	252.91835462214
95	34	33	240.43591938318
95	35	34	227.72794961414
95	36	35	214.93792227217
vector 170 FLScenario.node[35].veinsmobility posx ETV
vector 171 FLScenario.node[35].veinsmobility posy ETV
vector 172 FLScenario.node[33].veinsmobility acceleration ETV
vector 173 FLScenario.node[33].veinsmobility co2emission ETV
vector 174 FLScenario.node[34].veinsmobility speed ETV
vector 175 FLScenario.node[34].veinsmobility acceleration ETV
vector 176 FLScenario.node[34].veinsmobility co2emission ETV
vector 177 FLScenario.node[35].veinsmobility speed ETV
vector 178 FLScenario.node[36].veinsmobility posx ETV
vector 179 FLScenario.node[36].veinsmobility posy ETV
vector 180 FLScenario.node[35].veinsmobility acceleration ETV
vector 181 FLScenario.node[35].veinsmobility co2emission ETV
vector 182 FLScenario.node[37].veinsmobility posx ETV
vector 183 FLScenario.node[37].veinsmobility posy ETV
vector 184 FLScenario.node[36].veinsmobility speed ETV
vector 185 FLScenario.node[38].veinsmobility posx ETV
vector 186 FLScenario.node[38].veinsmobility posy ETV
vector 187 FLScenario.node[36].veinsmobility acceleration ETV
vector 188 FLScenario.node[36].veinsmobility co2emission ETV
vector 189 FLScenario.node[37].veinsmobility speed ETV
vector 190 FLScenario.node[39].veinsmobility posx ETV
vector 191 FLScenario.node[39].veinsmobility posy ETV
vector 192 FLScenario.node[37].veinsmobility acceleration ETV
vector 193 FLScenario.node[37].veinsmobility co2emission ETV
vector 194 FLScenario.node[38].veinsmobility speed ETV
vector 195 FLScenario.node[40].veinsmobility posx ETV
vector 196 FLScenario.node[40].veinsmobility posy ETV
vector 197 FLScenario.node[38].veinsmobility acceleration ETV
vector 198 FLScenario.node[38].veinsmobility co2emission ETV
vector 199 FLScenario.node[39].veinsmobility speed ETV
vector 200 FLScenario.node[41].veinsmobility posx ETV
vector 201 FLScenario.node[41].veinsmobility posy ETV
vector 202 FLScenario.node[39].veinsmobility acceleration ETV
vector 203 FLScenario.node[39].veinsmobility co2emission ETV
vector 204 FLScenario.node[40].veinsmobility speed ETV
vector 205 FLScenario.node[42].veinsmobility posx ETV
vector 206 FLScenario.node[42].veinsmobility posy ETV
vector 207 FLScenario.node[43].veinsmobility posx ETV
vector 208 FLScenario.node[43].veinsmobility posy ETV
vector 209 FLScenario.node[40].veinsmobility acceleration ETV
vector 210 FLScenario.node[40].veinsmobility co2emission ETV
vector 211 FLScenario.node[41].veinsmobility speed ETV
vector 212 FLScenario.node[41].veinsmobility acceleration ETV
vector 213 FLScenario.node[41].veinsmobility co2emission ETV
vector 214 FLScenario.node[42].veinsmobility speed ETV
vector 215 FLScenario.node[43].veinsmobility speed ETV
vector 216 FLScenario.node[44].veinsmobility posx ETV
vector 217 FLScenario.node[44].veinsmobility posy ETV
vector 218 FLScenario.node[45].veinsmobility posx ETV
vector 219 FLScenario.node[45].veinsmobility posy ETV
vector 220 FLScenario.node[42].veinsmobility acceleration ETV
vector 221 FLScenario.node[42].veinsmobility co2emission ETV
vector 222 FLScenario.node[43].veinsmobility acceleration ETV
vector 223 FLScenario.node[43].veinsmobility co2emission ETV
vector 224 FLScenario.node[46].veinsmobility posx ETV
vector 225 FLScenario.node[46].veinsmobility posy ETV
vector 226 FLScenario.node[44].veinsmobility speed ETV
vector 227 FLScenario.node[45].veinsmobility speed ETV
vector 228 FLScenario.node[47].veinsmobility posx ETV
vector 229 FLScenario.node[47].veinsmobility posy ETV
vector 230 FLScenario.node[44].veinsmobility acceleration ETV
vector 231 FLScenario.node[44].veinsmobility co2emission ETV
vector 232 FLScenario.node[45].veinsmobility acceleration ETV
vector 233 FLScenario.node[45].veinsmobility co2emission ETV
vector 234 FLScenario.node[46].veinsmobility speed ETV
vector 235 FLScenario.node[46].veinsmobility acceleration ETV
vector 236 FLScenario.node[46].veinsmobility co2emission ETV
vector 237 FLScenario.node[47].veinsmobility speed ETV
vector 238 FLScenario.node[48].veinsmobility posx ETV
vector 239 FLScenario.node[48].veinsmobility posy ETV
vector 240 FLScenario.node[47].veinsmobility acceleration ETV
vector 241 FLScenario.node[47].veinsmobility co2emission ETV
vector 242 FLScenario.node[49].veinsmobility posx ETV
vector 243 FLScenario.node[49].veinsmobility posy ETV
vector 244 FLScenario.node[48].veinsmobility speed ETV
78	18	17	3.6211086383691
78	19	18	3.5288866095716
78	20	19	6.0816716032926
78	21	20	7.3946666625249
78	22	21	6.8815213392572
78	23	22	8.05855665245
78	24	23	1.4318033861394
78	25	24	0.973
78	26	25	0.973
78	27	26	0.973
78	28	27	4.8036887121883
78	29	28	5.5157968848053
78	30	29	1.2499573044111
78	31	30	8.8727324195685
78	32	31	7.1267997481665
78	33	32	3.8815310469709
78	34	33	1.7276974696013
78	35	34	0.973
78	36	35	2.2280229058002
78	37	36	1.998025330446
78	38	37	2.4170084412976
78	39	38	0.973
78	40	39	3.1117133392185
78	41	40	1.1421294243008
78	42	41	1.8953807266134
78	43	42	1.89402588225
78	44	43	3.9658282280083
78	45	44	1.4168420566207
78	46	45	0.973
78	47	46	0.973
78	48	47	0.973
78	49	48	3.6271993898421
78	50	49	6.4418296563716
78	51	50	7.21576109815
78	52	51	5.8358332087652
77	18	17	2.045571109117
77	19	18	1.4409547501011
77	20	19	2.2535873713903
77	21	20	2.2296804808313
77	22	21	1.6980901245028
77	23	22	1.7801585490135
77	24	23	-0.1772498215083
77	25	24	-0.71979585674126
77	26	25	-2.4992137112503
77	27	26	-4.5
77	28	27	1.7270764273591
77	29	28	1.6816849486872
77	30	29	-0.17178671802394
77	31	30	2.4680079158628
77	32	31	1.5904843586841
77	33	32	0.54804935185239
77	34	33	-0.089429757627657
77	35	34	-0.5215864774771
77	36	35	0.07585895974189
77	37	36	0.0046932037221268
77	38	37	0.12886185280513
77	39	38	-0.28716475677211
77	40	39	0.33843295355327
77	41	40	-0.2586442497326
77	42	41	-0.024074060330168
77	43	42	-0.023815969168208
77	44	43	0.57868970709387
77	45	44	-0.1794341662433
77	46	45	-0.4823725703804
77	47	46	-4.2664432115465
77	48	47	-4.5
77	49	48	1.5284379143734
77	50	49	2.4062933571171
77	51	50	2.1567973947851
77	52	51	1.3868436365854
74	17	16	2.5772626519203
74	18	17	4.6228337610373
74	19	18	6.0637885111384
74	20	19	8.3173758825287
74	21	20	10.54705636336
74	22	21	12.245146487863
74	23	22	14.025305036876
74	24	23	13.848055215368
74	25	24	13.128259358627
74	26	25	10.629045647377
74	27	26	6.1290456473765
74	28	27	7.8561220747357
74	29	28	9.5378070234229
74	30	29	9.366020305399
74	31	30	11.834028221262
74	32	31	13.424512579946
74	33	32	13.972561931798
74	34	33	13.883132174171
74	35	34	13.361545696693
74	36	35	13.437404656435
74	37	36	13.442097860157
74	38	37	13.570959712963
74	39	38	13.283794956191
74	40	39	13.622227909744
74	41	40	13.363583660011
74	42	41	13.339509599681
74	43	42	13.315693630513
74	44	43	13.894383337607
74	45	44	13.714949171363
74	46	45	13.232576600983
74	47	46	8.9661333894365
74	48	47	4.4661333894365
74	49	48	5.9945713038098
74	50	49	8.400864660927
74	51	50	10.557662055712
74	52	51	11.944505692297
66	16	15	140.890912323
66	17	16	140.890912323
66	18	17	138.31364967108
66	19	18	133.69081591004
66	20	19	127.6270273989
66	21	20	119.30965151637
66	22	21	108.76259515301
66	23	22	96.51744866515
66	24	23	82.497266464866
66	25	24	68.654088412906
66	26	25	55.525829054279
66	27	26	44.896783406903
66	28	27	38.767737759526
66	29	28	30.961161336521
66	30	29	24.18647297036
66	31	30	23.04
66	32	31	23.03
66	33	32	23.02
66	34	33	23.02
66	35	34	23.02
66	36	35	23.02
66	37	36	23.013246595592
66	38	37	23.01
66	39	38	23.01
66	40	39	23.01
66	41	40	23.01
66	42	41	23.01
66	43	42	23.007489161002
66	44	43	23.001732267949
66	45	44	23
66	46	45	23
66	47	46	23
66	48	47	23.44884024404
66	49	48	24.592273849315
66	50	49	28.34914988381
66	51	50	36.302711850448
66	52	51	46.857399078869
65	16	15	363.89275795597
65	17	16	363.89275795597
65	18	17	363.89425781784
65	19	18	363.89694811877
65	20	19	363.90047699666
65	21	20	363.9053173706
65	22	21	363.91145532775
65	23	22	363.91858150417
65	24	23	363.92512283659
65	25	24	363.93158108455
65	26	25	363.93895236999
65	27	26	363.94492039112
65	28	27	363.94836174185
65	29	28	363.23541039143
65	30	29	357.08910951125
65	31	30	347.86778561367
65	32	31	336.0337974385
65	33	32	322.60932335919
65	34	33	308.63674785048
65	35	34	294.75360218629
65	36	35	281.3920435064
65	37	36	267.95465955923
65	38	37	254.51256487018
65	39	38	240.94159197053
65	40	39	227.65778410669
65	41	40	214.03554296045
65	42	41	200.67194631526
65	43	42	187.33494023592
65	44	43	174.02500349845
65	45	44	160.13001271096
65	46	45	146.41181816592
65	47	46	133.17611033526
65	48	47	124.23782509039
65	49	48	119.99128196838
65	50	49	115.5493664099
65	51	50	113.43016423671
65	52	51	113.433139064
113	25	24	2.6653588455801
113	26	25	3.3343132526646
113	27	26	3.711152472906
113	28	27	4.8394735587972
113	29	28	5.7389533607541
113	30	29	3.2537022783082
113	31	30	2.5322325278352
113	32	31	3.9830676817469
113	33	32	6.0369666246018
113	34	33	1.7981791695352
113	35	34	0.973
113	36	35	4.7760910060028
113	37	36	0.973
113	38	37	1.8253452313268
113	39	38	1.7826356775616
113	40	39	0.973
113	41	40	6.617866470248
113	42	41	0.973
113	43	42	1.9114050864328
113	44	43	3.2587897800529
113	45	44	0.973
113	46	45	0.973
113	47	46	0.973
113	48	47	6.4396416589987
113	49	48	2.3254621727963
113	50	49	6.1393169836836
113	51	50	6.0491182724492
113	52	51	1.1957831269419
112	25	24	1.6383382474538
112	26	25	1.5993191994727
112	27	26	1.4349008767167
112	28	27	1.6618544113357
112	29	28	1.7024183750385
112	30	29	0.60434449324894
112	31	30	0.30122732782547
112	32	31	0.77761821231688
112	33	32	1.3203824597101
112	34	33	-0.041563414070364
112	35	34	-0.46637281062217
112	36	35	0.87831032461446
112	37	36	-1.3752613320701
112	38	37	-0.0048270710735405
112	39	38	-0.01917359402036
112	40	39	-0.380462788847
112	41	40	1.4946979271492
112	42	41	-0.7790946483527
112	43	42	0.014580754273966
112	44	43	0.44224771058772
112	45	44	-2.7720816273928
112	46	45	-2.2385431934847
112	47	46	-1.4213713950945
112	48	47	2.3482350097736
112	49	48	0.33490312143704
112	50	49	1.7185032199742
112	51	50	1.4408832958879
112	52	51	-0.22399002678201
109	24	23	1.8630499339197
109	25	24	3.5013881813735
109	26	25	5.1007073808461
109	27	26	6.5356082575629
109	28	27	8.1974626688985
109	29	28	9.8998810439371
109	30	29	10.504225537186
109	31	30	10.805452865011
109	32	31	11.583071077328
109	33	32	12.903453537038
109	34	33	12.861890122968
109	35	34	12.395517312346
109	36	35	13.27382763696
109	37	36	11.89856630489
109	38	37	11.893739233817
109	39	38	11.874565639796
109	40	39	11.494102850949
109	41	40	12.988800778099
109	42	41	12.209706129746
109	43	42	12.22428688402
109	44	43	12.666534594608
109	45	44	9.8944529672148
109	46	45	7.6559097737302
109	47	46	6.2345383786356
109	48	47	8.5827733884093
109	49	48	8.9176765098463
109	50	49	10.63617972982
109	51	50	12.077063025708
109	52	51	11.853072998926
101	23	22	98.819087677002
101	24	23	98.819087677002
101	25	24	100.68213761092
101	26	25	104.1835257923
101	27	26	109.28423317314
101	28	27	115.8198414307
101	29	28	124.0173040996
101	30	29	133.91718514354
101	31	30	144.42141068073
101	32	31	155.22686354574
101	33	32	166.80993462307
101	34	33	179.71077006338
101	35	34	192.56959710225
101	36	35	204.96216239809
101	37	36	218.23782945503
101	38	37	230.14145897963
101	39	38	242.03692877109
101	40	39	253.91149441088
101	41	40	265.40559726183
101	42	41	278.39439803993
101	43	42	290.60410416968
101	44	43	302.8283910537
101	45	44	315.4949256483
101	46	45	325.38937861552
101	47	46	333.04528838925
101	48	47	339.27982676788
101	49	48	347.80932762668
101	50	49	354.27982336729
101	51	50	355.66
101	52	51	355.66
100	23	22	359.91724204403
100	24	23	359.91724204403
100	25	24	359.91615782486
100	26	25	359.91412015958
100	27	26	359.91115175567
100	28	27	359.90734829791
100	29	28	359.90257770857
100	30	29	359.8968163811
100	31	30	359.89070334975
100	32	31	359.88168742872
100	33	32	359.87165445247
100	34	33	359.86476380654
100	35	34	359.85863763835
100	36	35	359.85273360534
100	37	36	359.8435875547
100	38	37	359.83346111529
100	39	38	359.82566335094
100	40	39	359.81908403671
100	41	40	359.81271552465
100	42	41	359.80551884863
100	43	42	359.79875384384
100	44	43	359.79198076034
100	45	44	359.78496264162
100	46	45	359.77948044402
100	47	46	359.77523855108
100	48	47	359.77178419424
100	49	48	360.5166241975
100	50	49	366.1669559129
100	51	50	376.58645639596
100	52	51	388.66351942167
vector 245 FLScenario.node[48].veinsmobility acceleration ETV
vector 246 FLScenario.node[48].veinsmobility co2emission ETV
vector 247 FLScenario.node[49].veinsmobility speed ETV
vector 248 FLScenario.node[50].veinsmobility posx ETV
vector 249 FLScenario.node[50].veinsmobility posy ETV
vector 250 FLScenario.node[51].veinsmobility posx ETV
vector 251 FLScenario.node[51].veinsmobility posy ETV
vector 252 FLScenario.node[52].veinsmobility posx ETV
vector 253 FLScenario.node[52].veinsmobility posy ETV
vector 254 FLScenario.node[49].veinsmobility acceleration ETV
vector 255 FLScenario.node[49].veinsmobility co2emission ETV
vector 256 FLScenario.node[53].veinsmobility posx ETV
vector 257 FLScenario.node[53].veinsmobility posy ETV
vector 258 FLScenario.node[50].veinsmobility speed ETV
vector 259 FLScenario.node[51].veinsmobility speed ETV
vector 260 FLScenario.node[52].veinsmobility speed ETV
vector 261 FLScenario.node[54].veinsmobility posx ETV
vector 262 FLScenario.node[54].veinsmobility posy ETV
vector 263 FLScenario.node[50].veinsmobility acceleration ETV
vector 264 FLScenario.node[50].veinsmobility co2emission ETV
vector 265 FLScenario.node[51].veinsmobility acceleration ETV
vector 266 FLScenario.node[51].veinsmobility co2emission ETV
vector 267 FLScenario.node[52].veinsmobility acceleration ETV
vector 268 FLScenario.node[52].veinsmobility co2emission ETV
vector 269 FLScenario.node[53].veinsmobility speed ETV
83	19	18	2.3286548287968
83	20	19	3.3730368492994
83	21	20	5.954142248244
83	22	21	5.4524440727528
83	23	22	6.1323728735461
83	24	23	7.9323723516192
83	25	24	6.1485907393235
83	26	25	3.1251580289334
83	27	26	0.973
83	28	27	0.973
83	29	28	4.9666597397795
83	30	29	0.973
83	31	30	5.7739367298689
83	32	31	0.973
83	33	32	2.0657877336135
83	34	33	3.6751931637828
83	35	34	0.973
83	36	35	4.5562232118388
83	37	36	0.973
83	38	37	3.9132039375057
83	39	38	0.973
83	40	39	0.973
83	41	40	0.973
83	42	41	0.973
83	43	42	2.5585537893467
83	44	43	5.0105179241527
83	45	44	5.8018593274184
83	46	45	9.477643269828
83	47	46	4.1671321361072
83	48	47	0.973
83	49	48	1.706603602769
83	50	49	4.1478133631393
83	51	50	3.8656036137858
83	52	51	0.973
83	53	52	0.973
83	54	53	1.6586191744211
83	55	54	4.1035646402988
83	56	55	3.0159104293206
82	19	18	1.5394112827955
82	20	19	1.7920644252561
82	21	20	2.5533435415709
82	22	21	1.7675378077198
82	23	22	1.7007151508005
82	24	23	1.9698261749232
82	25	24	1.2283031040112
82	26	25	0.31016703869682
82	27	26	-0.45345167531632
82	28	27	-0.40774121608119
82	29	28	0.84852697364986
82	30	29	-0.90654725597706
82	31	30	1.0672538143815
82	32	31	-0.96059726236854
82	33	32	0.025786624359899
82	34	33	0.4897908719955
82	35	34	-0.31994334983174
82	36	35	0.71934156699572
82	37	36	-0.69488515725825
82	38	37	0.54342587012798
82	39	38	-0.53333359847311
82	40	39	-1.6601389435364
82	41	40	-3.4357530264882
82	42	41	-1.0316404621117
82	43	42	0.52299057685304
82	44	43	1.4680480054813
82	45	44	1.5192738080164
82	46	45	2.3312650997657
82	47	46	0.63178187515699
82	48	47	-0.72133621168323
82	49	48	-0.079084321227857
82	50	49	0.63834394991864
82	51	50	0.51816720264033
82	52	51	-0.6784996757051
82	53	52	-0.36561046985444
82	54	53	-0.094596471870318
82	55	54	0.62474527249578
82	56	55	0.28385322990361
79	18	17	1.3620386655908
79	19	18	2.9014499483863
79	20	19	4.6935143736424
79	21	20	7.2468579152133
79	22	21	9.0143957229331
79	23	22	10.715110873734
79	24	23	12.684937048657
79	25	24	13.913240152668
79	26	25	14.223407191365
79	27	26	13.769955516049
79	28	27	13.362214299967
79	29	28	14.210741273617
79	30	29	13.30419401764
79	31	30	14.371447832022
79	32	31	13.410850569653
79	33	32	13.436637194013
79	34	33	13.926428066009
79	35	34	13.606484716177
79	36	35	14.325826283173
79	37	36	13.630941125914
79	38	37	14.174366996042
79	39	38	13.641033397569
79	40	39	11.980894454033
79	41	40	8.5451414275445
79	42	41	7.5135009654329
79	43	42	8.0364915422859
79	44	43	9.5045395477672
79	45	44	11.023813355784
79	46	45	13.355078455549
79	47	46	13.986860330706
79	48	47	13.265524119023
79	49	48	13.186439797795
79	50	49	13.824783747714
79	51	50	14.342950950354
79	52	51	13.664451274649
79	53	52	13.298840804795
79	54	53	13.204244332924
79	55	54	13.82898960542
79	56	55	14.112842835324
71	17	16	351.66
71	18	17	351.66
71	19	18	351.66
71	20	19	351.66
71	21	20	351.66
71	22	21	351.66
71	23	22	351.66
71	24	23	351.66
71	25	24	351.66
71	26	25	351.66
71	27	26	351.66
71	28	27	351.66
71	29	28	351.66
71	30	29	351.66
71	31	30	351.66
71	32	31	351.65
71	33	32	351.65
71	34	33	351.65
71	35	34	351.65
71	36	35	351.65
71	37	36	351.65
71	38	37	351.64500236101
71	39	38	351.64
71	40	39	351.64
71	41	40	351.64
71	42	41	351.6070662171
71	43	42	349.04247002294
71	44	43	341.47889069395
71	45	44	331.97522328232
71	46	45	320.95242147116
71	47	46	307.59856847702
71	48	47	293.61299158
71	49	48	280.34868470489
71	50	49	267.16345489423
71	51	50	253.33993970806
71	52	51	238.99830486626
71	53	52	225.3307120694
71	54	53	212.02582633697
71	55	54	198.82410460661
71	56	55	184.99822333781
70	17	16	402.900912323
70	18	17	402.900912323
70	19	18	401.53887365741
70	20	19	398.63742370902
70	21	20	393.94390933538
70	22	21	386.69705142017
70	23	22	377.68265569723
70	24	23	366.9675448235
70	25	24	354.28260777484
70	26	25	340.3693629533
70	27	26	326.14594938314
70	28	27	312.37598769165
70	29	28	299.01376739911
70	30	29	284.80301975238
70	31	30	271.49881976818
70	32	31	257.12741599474
70	33	32	243.7165594107
70	34	33	230.27991619073
70	35	34	216.35348187911
70	36	35	202.74699106081
70	37	36	188.42115835291
70	38	37	174.79023610148
70	39	38	160.61588775981
70	40	39	146.97484824462
70	41	40	134.9939484175
70	42	41	126.45116699124
70	43	42	119.62040453092
70	44	43	117.47984011943
70	45	44	117.47809584717
70	46	45	117.47607275791
70	47	46	117.47362183509
70	48	47	117.47105496771
70	49	48	117.46862047989
70	50	49	117.46620050562
70	51	50	117.46366338253
70	52	51	117.46103116543
70	53	52	117.46
70	54	53	117.46
70	55	54	117.45717942999
70	56	55	117.45407109338
vector 270 FLScenario.node[55].veinsmobility posx ETV
vector 271 FLScenario.node[55].veinsmobility posy ETV
vector 272 FLScenario.node[53].veinsmobility acceleration ETV
vector 273 FLScenario.node[53].veinsmobility co2emission ETV
vector 274 FLScenario.node[54].veinsmobility speed ETV
vector 275 FLScenario.node[54].veinsmobility acceleration ETV
vector 276 FLScenario.node[54].veinsmobility co2emission ETV
vector 277 FLScenario.node[55].veinsmobility speed ETV
vector 278 FLScenario.node[56].veinsmobility posx ETV
vector 279 FLScenario.node[56].veinsmobility posy ETV
vector 280 FLScenario.node[55].veinsmobility acceleration ETV
vector 281 FLScenario.node[55].veinsmobility co2emission ETV
vector 282 FLScenario.node[57].veinsmobility posx ETV
vector 283 FLScenario.node[57].veinsmobility posy ETV
vector 284 FLScenario.node[56].veinsmobility speed ETV
158	35	34	2.8110597605761
158	36	35	3.9978377351298
158	37	36	6.0705148607236
158	38	37	6.6426959962743
158	39	38	0.973
158	40	39	0.973
158	41	40	0.973
158	42	41	0.973
158	43	42	1.1100351685435
158	44	43	1.1100083801211
158	45	44	0.973
158	46	45	0.973
158	47	46	0.973
158	48	47	0.973
158	49	48	0.973
158	50	49	0.973
158	51	50	0.973
158	52	51	0.973
158	53	52	1.7259858904422
158	54	53	2.9202685997998
158	55	54	3.0875488463212
158	56	55	5.2047352109435
158	57	56	5.7123104269039
158	58	57	6.9926945599779
158	59	58	6.6440236870675
158	60	59	1.8281398157854
157	35	34	1.583816642873
157	36	35	1.8539191005519
157	37	36	2.312641028408
157	38	37	2.0255122088129
157	39	38	-4.1847425714363
157	40	39	-2.9550162709318
157	41	40	-2.7764407356515
157	42	41	-0.20021271699979
157	43	42	-0.018189749413026
157	44	43	-0.00062764087431785
157	45	44	-0.00017426369226394
157	46	45	0
157	47	46	0
157	48	47	0
157	49	48	0
157	50	49	0
157	51	50	0
157	52	51	0
157	53	52	1.5013780327747
157	54	53	1.963270377554
157	55	54	1.4575920173898
157	56	55	2.1746270556701
157	57	56	1.8930845766521
157	58	57	1.979035354848
157	59	58	1.5707574565429
157	60	59	-0.022175342199226
153	34	33	2.3595149683533
153	35	34	3.9433316112263
153	36	35	5.7972507117782
153	37	36	8.1098917401861
153	38	37	10.135403948999
153	39	38	5.9506613775627
153	40	39	2.9956451066309
153	41	40	0.2192043709794
153	42	41	0.018991653979607
153	43	42	0.00080190456658179
153	44	43	0.00017426369226394
153	45	44	0
153	46	45	0
153	47	46	0
153	48	47	0
153	49	48	0
153	50	49	0
153	51	50	0
153	52	51	0
153	53	52	1.5013780327747
153	54	53	3.4646484103287
153	55	54	4.9222404277185
153	56	55	7.0968674833886
153	57	56	8.9899520600408
153	58	57	10.968987414889
153	59	58	12.539744871432
153	60	59	12.517569529232
144	33	32	80.540910116248
144	34	33	80.540910116248
144	35	34	80.541451289406
144	36	35	80.542355723262
144	37	36	80.543685367921
144	38	37	80.545545434833
144	39	38	80.547870068767
144	40	39	80.549234899358
144	41	40	80.549921973924
144	42	41	80.549972250155
144	43	42	80.549976606039
144	44	43	80.549976789962
144	45	44	80.549976829931
144	46	45	80.549976829931
144	47	46	80.549976829931
144	48	47	80.549976829931
144	49	48	80.549976829931
144	50	49	80.549976829931
144	51	50	80.549976829931
144	52	51	80.549976829931
144	53	52	80.549976829931
144	54	53	80.742529104924
144	55	54	81.218868981025
144	56	55	83.373053830871
144	57	56	89.425365028532
144	58	57	98.375066087798
144	59	58	109.34617598477
144	60	59	121.88834727742
143	33	32	166.08189315796
143	34	33	166.08189315796
143	35	34	163.72237818961
143	36	35	159.77904657838
143	37	36	153.9817958666
143	38	37	145.87190412642
143	39	38	135.73650017742
143	40	39	129.78583879985
143	41	40	126.79019369322
143	42	41	126.57098932224
143	43	42	126.55199766826
143	44	43	126.5511957637
143	45	44	126.5510215
143	46	45	126.5510215
143	47	46	126.5510215
143	48	47	126.5510215
143	49	48	126.5510215
143	50	49	126.5510215
143	51	50	126.5510215
143	52	51	126.5510215
143	53	52	126.5510215
143	54	53	125.06330302909
143	55	54	121.63244999743
143	56	55	117.26863751407
143	57	56	113.99288505007
143	58	57	113.44100117355
143	59	58	113.44312365564
143	60	59	113.44555007686
vector 285 FLScenario.node[58].veinsmobility posx ETV
vector 286 FLScenario.node[58].veinsmobility posy ETV
vector 287 FLScenario.node[56].veinsmobility acceleration ETV
vector 288 FLScenario.node[56].veinsmobility co2emission ETV
vector 289 FLScenario.node[57].veinsmobility speed ETV
vector 290 FLScenario.node[59].veinsmobility posx ETV
vector 291 FLScenario.node[59].veinsmobility posy ETV
vector 292 FLScenario.node[57].veinsmobility acceleration ETV
vector 293 FLScenario.node[57].veinsmobility co2emission ETV
vector 294 FLScenario.node[58].veinsmobility speed ETV
vector 295 FLScenario.node[60].veinsmobility posx ETV
vector 296 FLScenario.node[60].veinsmobility posy ETV
vector 297 FLScenario.node[61].veinsmobility posx ETV
vector 298 FLScenario.node[61].veinsmobility posy ETV
vector 299 FLScenario.node[58].veinsmobility acceleration ETV
vector 300 FLScenario.node[58].veinsmobility co2emission ETV
vector 301 FLScenario.node[59].veinsmobility speed ETV
73	17	16	2.3292766763502
73	18	17	4.4438871268835
73	19	18	6.3030407006077
73	20	19	4.9213660165796
73	21	20	0.973
73	22	21	0.973
73	23	22	5.0583974806949
73	24	23	4.9326360331521
73	25	24	3.393967726163
73	26	25	6.8810220290318
73	27	26	8.4056334060637
73	28	27	3.2109408969736
73	29	28	0.973
73	30	29	5.4124463223935
73	31	30	1.6982461833292
73	32	31	0.973
73	33	32	3.8350031512307
73	34	33	0.973
73	35	34	2.8245184140005
73	36	35	1.712886135443
73	37	36	2.1338965718684
73	38	37	2.5071016817933
73	39	38	0.973
73	40	39	2.1574949863589
73	41	40	0.973
73	42	41	0.973
73	43	42	4.3243106114202
73	44	43	0.973
73	45	44	3.3227245311302
73	46	45	9.1454669308442
73	47	46	0.973
73	48	47	0.973
73	49	48	5.0380467402182
73	50	49	2.2061016406324
73	51	50	0.973
73	52	51	6.9411604787114
73	53	52	8.5738338629207
73	54	53	1.6894932215986
73	55	54	3.1777253865515
73	56	55	2.8925502822911
73	57	56	1.7445993436646
73	58	57	1.8334095377696
73	59	58	0.973
73	60	59	4.0691514252362
73	61	60	3.4737582913447
73	62	61	0.973
73	63	62	2.2110559844221
72	17	16	1.4788391654845
72	18	17	2.3642453478184
72	19	18	2.5100635003299
72	20	19	1.4594752020435
72	21	20	-1.694604709262
72	22	21	-4.0651302290699
72	23	22	2.4860693038907
72	24	23	1.7938905341784
72	25	24	0.85767364308524
72	26	25	1.9916550267488
72	27	26	2.1000355886295
72	28	27	0.39324965468225
72	29	28	-0.6181610444095
72	30	29	1.0390025897883
72	31	30	-0.090038317232393
72	32	31	-0.8118601814378
72	33	32	0.58185514584184
72	34	33	-0.63292049688753
72	35	34	0.2845888472395
72	36	35	-0.069692306639627
72	37	36	0.06362157398835
72	38	37	0.17546369810589
72	39	38	-0.67596945902333
72	40	39	0.086318439850585
72	41	40	-0.45925178879487
72	42	41	-4.5
72	43	42	1.2763395468244
72	44	43	-0.18883839184418
72	45	44	0.74203031710349
72	46	45	2.536921401252
72	47	46	-1.1126793856877
72	48	47	-3.3089514271007
72	49	48	1.5624713518194
72	50	49	0.25350214093924
72	51	50	-0.94167448899243
72	52	51	2.0697931444738
72	53	52	2.1863556390395
72	54	53	-0.06974147257586
72	55	54	0.39634491039906
72	56	55	0.28980741144624
72	57	56	-0.067490637116133
72	58	57	-0.038520396873356
72	59	58	-0.6837220113026
72	60	59	0.66759875763673
72	61	60	0.4503440284403
72	62	61	-1.1919642246561
72	63	62	0.10506436405704
69	16	15	1.528189688758
69	17	16	3.0070288542425
69	18	17	5.3712742020609
69	19	18	7.8813377023907
69	20	19	9.3408129044343
69	21	20	7.6462081951722
69	22	21	3.5810779661024
69	23	22	6.0671472699931
69	24	23	7.8610378041714
69	25	24	8.7187114472567
69	26	25	10.710366474005
69	27	26	12.810402062635
69	28	27	13.203651717317
69	29	28	12.585490672908
69	30	29	13.624493262696
69	31	30	13.534454945464
69	32	31	12.722594764026
69	33	32	13.304449909868
69	34	33	12.67152941298
69	35	34	12.95611826022
69	36	35	12.88642595358
69	37	36	12.950047527568
69	38	37	13.125511225674
69	39	38	12.449541766651
69	40	39	12.535860206502
69	41	40	12.076608417707
69	42	41	7.5766084177066
69	43	42	8.8529479645311
69	44	43	8.6641095726869
69	45	44	9.4061398897904
69	46	45	11.943061291042
69	47	46	10.830381905355
69	48	47	7.521430478254
69	49	48	9.0839018300735
69	50	49	9.3374039710127
69	51	50	8.3957294820203
69	52	51	10.465522626494
69	53	52	12.651878265534
69	54	53	12.582136792958
69	55	54	12.978481703357
69	56	55	13.268289114803
69	57	56	13.200798477687
69	58	57	13.162278080814
69	59	58	12.478556069511
69	60	59	13.146154827148
69	61	60	13.596498855588
69	62	61	12.404534630932
69	63	62	12.509598994989
61	15	14	40.026659993752
61	16	15	40.026659993752
61	17	16	41.554419085246
61	18	17	44.560600650434
61	19	18	49.930361391182
61	20	19	57.80947837289
61	21	20	67.147659321025
61	22	21	74.758222574423
61	23	22	78.141681159093
61	24	23	82.528967980064
61	25	24	84.527191742536
61	26	25	84.54803653673
61	27	26	84.545580030658
61	28	27	84.542641865048
61	29	28	84.54
61	30	29	84.54
61	31	30	84.539278623661
61	32	31	84.537570267089
61	33	32	84.535964385768
61	34	33	84.534285061071
61	35	34	84.532685625361
61	36	35	84.531050268055
61	37	36	84.529423707505
61	38	37	84.527789116463
61	39	38	84.526132377905
61	40	39	84.524560962094
61	41	40	84.522978650929
61	42	41	84.521454307802
61	43	42	84.520497967201
61	44	43	83.831874585916
61	45	44	78.767130903704
61	46	45	69.691947719644
61	47	46	57.748886428602
61	48	47	46.918504523247
61	49	48	39.397074044993
61	50	49	30.368721909642
61	51	50	23.987106978704
61	52	51	23.04
61	53	52	23.03
61	54	53	23.029512033825
61	55	54	23.02
61	56	55	23.02
61	57	56	23.02
61	58	57	23.02
61	59	58	23.01
61	60	59	23.01
61	61	60	23.01
61	62	61	23.01
61	63	62	23.01
60	15	14	113.43121382751
60	16	15	113.43121382751
60	17	16	113.43164442477
60	18	17	113.43249171382
60	19	18	113.43400517514
60	20	19	113.43622589582
60	21	20	113.43885785212
60	22	21	113.93352059679
60	23	22	114.89581309326
60	24	23	118.82872497166
60	25	24	126.29363977714
60	26	25	135.01069985584
60	27	26	145.72106632985
60	28	27	158.53146839248
60	29	28	171.7351201098
60	30	29	184.32061078271
60	31	30	197.94546473357
60	32	31	211.48077385732
60	33	32	224.20417156201
60	34	33	237.50946113422
60	35	34	250.18179026506
60	36	35	263.13872620393
60	37	36	276.02596543779
60	38	37	288.97683026088
60	39	38	302.10316985583
60	40	39	314.55349733039
60	41	40	327.09014869247
60	42	41	339.16751928174
60	43	42	346.74460586975
60	44	43	355.5488367653
60	45	44	362.13527337226
60	46	45	363.93099834491
60	47	46	363.93770416259
60	48	47	363.94378523048
60	49	48	363.94800838066
60	50	49	363.14881496718
60	51	50	356.74437248401
60	52	51	348.44003657564
60	53	52	337.97455532498
60	54	53	325.32266728105
60	55	54	312.74056729203
60	56	55	299.76207297769
60	57	56	286.49377097031
60	58	57	273.29295966562
60	59	58	260.13071879398
60	60	59	247.65215059926
60	61	60	234.5059829982
60	62	61	220.90947093111
60	63	62	208.5049242469
vector 302 FLScenario.node[62].veinsmobility posx ETV
vector 303 FLScenario.node[62].veinsmobility posy ETV
vector 304 FLScenario.node[59].veinsmobility acceleration ETV
vector 305 FLScenario.node[59].veinsmobility co2emission ETV
vector 306 FLScenario.node[60].veinsmobility speed ETV
vector 307 FLScenario.node[61].veinsmobility speed ETV
vector 308 FLScenario.node[63].veinsmobility posx ETV
vector 309 FLScenario.node[63].veinsmobility posy ETV
vector 310 FLScenario.node[60].veinsmobility acceleration ETV
vector 311 FLScenario.node[60].veinsmobility co2emission ETV
vector 312 FLScenario.node[61].veinsmobility acceleration ETV
vector 313 FLScenario.node[61].veinsmobility co2emission ETV
vector 314 FLScenario.node[62].veinsmobility speed ETV
vector 315 FLScenario.node[64].veinsmobility posx ETV
vector 316 FLScenario.node[64].veinsmobility posy ETV
vector 317 FLScenario.node[62].veinsmobility acceleration ETV
vector 318 FLScenario.node[62].veinsmobility co2emission ETV
vector 319 FLScenario.node[63].veinsmobility speed ETV
vector 320 FLScenario.node[65].veinsmobility posx ETV
vector 321 FLScenario.node[65].veinsmobility posy ETV
vector 322 FLScenario.node[63].veinsmobility acceleration ETV
vector 323 FLScenario.node[63].veinsmobility co2emission ETV
vector 324 FLScenario.node[64].veinsmobility speed ETV
vector 325 FLScenario.node[66].veinsmobility posx ETV
vector 326 FLScenario.node[66].veinsmobility posy ETV
vector 327 FLScenario.node[64].veinsmobility acceleration ETV
vector 328 FLScenario.node[64].veinsmobility co2emission ETV
vector 329 FLScenario.node[65].veinsmobility speed ETV
vector 330 FLScenario.node[67].veinsmobility posx ETV
vector 331 FLScenario.node[67].veinsmobility posy ETV
vector 332 FLScenario.node[65].veinsmobility acceleration ETV
vector 333 FLScenario.node[65].veinsmobility co2emission ETV
vector 334 FLScenario.node[66].veinsmobility speed ETV
vector 335 FLScenario.node[68].veinsmobility posx ETV
vector 336 FLScenario.node[68].veinsmobility posy ETV
vector 337 FLScenario.node[66].veinsmobility acceleration ETV
vector 338 FLScenario.node[66].veinsmobility co2emission ETV
vector 339 FLScenario.node[67].veinsmobility speed ETV
148	33	32	8.6588617013865
148	34	33	15.548595335438
148	35	34	0.973
148	36	35	0.973
148	37	36	0.973
148	38	37	2.2416437867483
148	39	38	0.973
148	40	39	14.806073996008
148	41	40	4.1956062243171
148	42	41	0.973
148	43	42	0.973
148	44	43	11.048363377024
148	45	44	0.973
148	46	45	13.146551669569
148	47	46	3.6586556769212
148	48	47	5.1079768458816
148	49	48	0.973
148	50	49	0.973
148	51	50	8.6511943764646
148	52	51	2.1051340667928
148	53	52	3.0696078254229
148	54	53	13.218077445337
148	55	54	0.973
148	56	55	0.973
148	57	56	0.973
148	58	57	3.2531187152061
148	59	58	20.876816948175
148	60	59	0.973
148	61	60	3.8633093048264
148	62	61	0.973
148	63	62	2.6622282766198
148	64	63	5.4566725533728
148	65	64	3.1819930231298
148	66	65	0.973
148	67	66	2.3220330676817
148	68	67	7.5411526077985
148	69	68	1.5130451147474
148	70	69	0.973
147	33	32	3.4997359290719
147	34	33	4.411589287244
147	35	34	-1.4988924096882
147	36	35	-2.7468007368714
147	37	36	-0.84492619615048
147	38	37	0.3558525564149
147	39	38	-0.63402837957256
147	40	39	4.5013460875489
147	41	40	0.74657990837579
147	42	41	-5.6538380136557
147	43	42	-3.5465227732288
147	44	43	4.765815340681
147	45	44	-1.1122993294763
147	46	45	4.165300212102
147	47	46	0.63054853434043
147	48	47	1.0155135048553
147	49	48	-5.0130061501481
147	50	49	-4.419871812826
147	51	50	3.9586475857068
147	52	51	0.30649336068891
147	53	52	0.72655101539567
147	54	53	3.8150554405369
147	55	54	-1.0098852833339
147	56	55	-4.0432011326074
147	57	56	-0.35632886365056
147	58	57	0.91123618651181
147	59	58	5.7613272811286
147	60	59	-0.48127047127819
147	61	60	0.56331680668518
147	62	61	-2.45859497739
147	63	62	0.30761588551104
147	64	63	1.1596941535827
147	65	64	0.39161131158471
147	66	65	-1.4019176317379
147	67	66	0.17051728349179
147	68	67	1.6993220045697
147	69	68	-0.14424243522808
147	70	69	-0.49834476714022
142	32	31	4.9046832674649
142	33	32	8.4044191965368
142	34	33	12.816008483781
142	35	34	11.317116074093
142	36	35	8.5703153372211
142	37	36	7.7253891410707
142	38	37	8.0812416974856
142	39	38	7.447213317913
142	40	39	11.948559405462
142	41	40	12.695139313838
142	42	41	7.041301300182
142	43	42	3.4947785269532
142	44	43	8.2605938676342
142	45	44	7.148294538158
142	46	45	11.31359475026
142	47	46	11.9441432846
142	48	47	12.959656789456
142	49	48	7.9466506393077
142	50	49	3.5267788264816
142	51	50	7.4854264121884
142	52	51	7.7919197728773
142	53	52	8.518470788273
142	54	53	12.33352622881
142	55	54	11.323640945476
142	56	55	7.2804398128686
142	57	56	6.9241109492181
142	58	57	7.8353471357299
142	59	58	13.596674416858
142	60	59	13.11540394558
142	61	60	13.678720752265
142	62	61	11.220125774875
142	63	62	11.527741660386
142	64	63	12.687435813969
142	65	64	13.079047125554
142	66	65	11.677129493816
142	67	66	11.847646777308
142	68	67	13.546968781877
142	69	68	13.402726346649
142	70	69	12.904381579509
139	31	30	23
139	32	31	23
139	33	32	23
139	34	33	23
139	35	34	23
139	36	35	23
139	37	36	23.747312782276
139	38	37	28.03372129652
139	39	38	35.604399494329
139	40	39	43.048005369256
139	41	40	54.993198034959
139	42	41	67.684760245581
139	43	42	74.691217707206
139	44	43	78.008881616368
139	45	44	83.599549091555
139	46	45	84.549731940892
139	47	46	84.547137079711
139	48	47	84.544397597306
139	49	48	84.54142519896
139	50	49	84.290316307457
139	51	50	83.782128570763
139	52	51	79.313949843568
139	53	52	71.935952316036
139	54	53	63.424621024608
139	55	54	51.091094795798
139	56	55	39.767453850322
139	57	56	32.532807370107
139	58	57	27.800611604964
139	59	58	27.01
139	60	59	27.01
139	61	60	27.01
139	62	61	27.01
139	63	62	27.01
139	64	63	27.01
139	65	64	27.02
139	66	65	27.02
139	67	66	27.02
139	68	67	27.02
139	69	68	27.02
139	70	69	27.03
138	31	30	167.87580849502
138	32	31	167.87580849502
138	33	32	162.96996463047
138	34	33	154.563556693
138	35	34	141.74451555222
138	36	35	130.42472150461
138	37	36	121.90227747869
138	38	37	115.76176555913
138	39	38	113.44871231207
138	40	39	113.43206539046
138	41	40	113.43543213022
138	42	41	113.43900923344
138	43	42	113.9242271135
138	44	43	114.81796508546
138	45	44	120.56468717236
138	46	45	127.61873771195
138	47	46	138.93233246221
138	48	47	150.87647574681
138	49	48	163.83613253626
138	50	49	171.76469523794
138	51	50	175.25465921283
138	52	51	180.94066563414
138	53	52	182.9833537974
138	54	53	183.0910247661
138	55	54	183.10840082446
138	56	55	183.12435410841
138	57	56	183.6608436963
138	58	57	188.28611623789
138	59	58	196.02262981435
138	60	59	209.62018050544
138	61	60	222.73642970849
138	62	61	236.41603202268
138	63	62	247.63688090872
138	64	63	259.16536550541
138	65	64	271.85356899654
138	66	65	284.93345903644
138	67	66	296.61134109426
138	68	67	308.45975142501
138	69	68	322.00759327771
138	70	69	335.41113185406
vector 340 FLScenario.node[69].veinsmobility posx ETV
vector 341 FLScenario.node[69].veinsmobility posy ETV
vector 342 FLScenario.node[67].veinsmobility acceleration ETV
vector 343 FLScenario.node[67].veinsmobility co2emission ETV
vector 344 FLScenario.node[68].veinsmobility speed ETV
vector 345 FLScenario.node[70].veinsmobility posx ETV
vector 346 FLScenario.node[70].veinsmobility posy ETV
vector 347 FLScenario.node[68].veinsmobility acceleration ETV
vector 348 FLScenario.node[68].veinsmobility co2emission ETV
vector 349 FLScenario.node[69].veinsmobility speed ETV
vector 350 FLScenario.node[71].veinsmobility posx ETV
vector 351 FLScenario.node[71].veinsmobility posy ETV
vector 352 FLScenario.node[69].veinsmobility acceleration ETV
vector 353 FLScenario.node[69].veinsmobility co2emission ETV
vector 354 FLScenario.node[70].veinsmobility speed ETV
vector 355 FLScenario.node[70].veinsmobility acceleration ETV
vector 356 FLScenario.node[70].veinsmobility co2emission ETV
vector 357 FLScenario.node[71].veinsmobility speed ETV
236	50	49	2.5561567417251
236	51	50	3.799212949223
236	52	51	3.6878570028203
236	53	52	4.6387986168487
236	54	53	6.5399040227803
236	55	54	0.973
236	56	55	1.3288020329928
236	57	56	3.0887112030511
236	58	57	5.0410557702534
236	59	58	8.6990167654375
236	60	59	0.973
236	61	60	0.973
236	62	61	3.77371224288
236	63	62	4.137937375527
236	64	63	1.4062520825904
236	65	64	6.1983243088312
236	66	65	5.5573632153406
236	67	66	0.973
236	68	67	0.973
236	69	68	2.1199765325593
236	70	69	1.6652851357578
236	71	70	0.973
236	72	71	6.1609508029912
236	73	72	7.9335399887958
236	74	73	6.1488396372821
235	50	49	1.5519068919821
235	51	50	1.8914171871962
235	52	51	1.3817265412537
235	53	52	1.5507707275217
235	54	53	1.9672132303938
235	55	54	-4.0267672522401
235	56	55	-0.066015430679545
235	57	56	0.94394096226897
235	58	57	1.6449445396895
235	59	58	2.5496271135285
235	60	59	-3.7001846675073
235	61	60	-3.4269829028891
235	62	61	1.6879870163044
235	63	62	1.49772358343
235	64	63	-0.051064242329448
235	65	64	2.0374515272677
235	66	65	1.4692793915048
235	67	66	-0.94865192548993
235	68	67	-3.3488303515711
235	69	68	0.39248474783187
235	70	69	0.1115830298746
235	71	70	-0.66590770264156
235	72	71	2.2273933399701
235	73	72	2.3543986466713
235	74	73	1.4376534166243
234	49	48	1.8642573473975
234	50	49	3.4161642393796
234	51	50	5.3075814265758
234	52	51	6.6893079678295
234	53	52	8.2400786953513
234	54	53	10.207291925745
234	55	54	6.1805246735049
234	56	55	6.1145092428254
234	57	56	7.0584502050944
234	58	57	8.7033947447838
234	59	58	11.253021858312
234	60	59	7.552837190805
234	61	60	4.1258542879159
234	62	61	5.8138413042203
234	63	62	7.3115648876503
234	64	63	7.2605006453209
234	65	64	9.2979521725886
234	66	65	10.767231564093
234	67	66	9.8185796386034
234	68	67	6.4697492870324
234	69	68	6.8622340348642
234	70	69	6.9738170647388
234	71	70	6.3079093620973
234	72	71	8.5353027020674
234	73	72	10.889701348739
234	74	73	12.327354765363
225	48	47	27
225	49	48	27
225	50	49	27
225	51	50	27
225	52	51	27
225	53	52	27
225	54	53	27
225	55	54	27
225	56	55	27.48438371332
225	57	56	31.187139110872
225	58	57	38.069707423128
225	59	58	46.770649816617
225	60	59	58.020500916446
225	61	60	65.571209947998
225	62	61	69.695901695962
225	63	62	75.448209923458
225	64	63	80.075212231982
225	65	64	80.540931507645
225	66	65	80.543064065482
225	67	66	80.545533614006
225	68	67	80.547785581813
225	69	68	80.549269469264
225	70	69	80.014159362981
225	71	70	75.310171494651
225	72	71	69.041761842395
225	73	72	60.508864128409
225	74	73	49.622231165511
224	48	47	131.65311606534
224	49	48	131.65311606534
224	50	49	133.51781455267
224	51	50	136.9347871603
224	52	51	142.2436245219
224	53	52	148.93451538324
224	54	53	157.17654393157
224	55	54	167.38625121272
224	56	55	173.53398366572
224	57	56	178.09638973708
224	58	57	179.12674505718
224	59	58	179.11448330071
224	60	59	179.09862950829
224	61	60	179.08798871202
224	62	61	179.08217601227
224	63	62	178.42973375579
224	64	63	173.21536497185
224	65	64	165.9886266693
224	66	65	156.69067449671
224	67	66	145.92344293262
224	68	67	136.10486329401
224	69	68	129.63511400698
224	70	69	122.80997912094
224	71	70	118.01167459793
224	72	71	117.43939170289
224	73	72	117.43698671481
224	74	73	117.43391832896
vector 358 FLScenario.node[72].veinsmobility posx ETV
vector 359 FLScenario.node[72].veinsmobility posy ETV
vector 360 FLScenario.node[71].veinsmobility acceleration ETV
vector 361 FLScenario.node[71].veinsmobility co2emission ETV
28	8	7	11.323253033027
28	9	8	7.637194997022
28	10	9	4.9103658466911
28	11	10	0.973
28	12	11	5.0127394932509
28	13	12	0.973
28	14	13	0.973
28	15	14	4.9134085505888
28	16	15	0.973
28	17	16	0.973
28	18	17	2.6074022366398
28	19	18	4.6295259408291
28	20	19	0.973
28	21	20	17.362918596401
28	22	21	0.973
28	23	22	5.0040409322862
28	24	23	0.973
28	25	24	6.7419619604343
28	26	25	0.973
28	27	26	5.526732780839
28	28	27	0.973
28	29	28	3.6487320177638
28	30	29	0.973
28	31	30	3.8272290427486
28	32	31	0.973
28	33	32	7.2879950315169
28	34	33	3.1405643842565
28	35	34	0.973
28	36	35	2.5507935048603
28	37	36	6.6148753427755
28	38	37	0.973
28	39	38	7.1033964626752
28	40	39	0.973
28	41	40	0.973
28	42	41	9.9505861818328
28	43	42	0.973
28	44	43	0.973
28	45	44	0.973
28	46	45	6.0866176890827
28	47	46	1.5387891030186
28	48	47	0.973
28	49	48	6.7817769562378
28	50	49	0.973
28	51	50	4.3205441158206
28	52	51	2.910409631754
28	53	52	0.973
28	54	53	0.973
28	55	54	1.921759721878
28	56	55	7.6882402580704
28	57	56	0.973
28	58	57	10.018980904967
28	59	58	0.973
28	60	59	7.1925353284716
28	61	60	1.808048205808
28	62	61	0.973
28	63	62	1.5302048816692
28	64	63	0.973
28	65	64	5.6430440928462
28	66	65	2.726508057752
28	67	66	0.973
28	68	67	0.973
28	69	68	9.8375443731257
28	70	69	0.973
28	71	70	0.973
28	72	71	4.2305098618299
28	73	72	0.973
28	74	73	0.973
28	75	74	3.173094888973
27	8	7	4.5419232035056
27	9	8	2.1976722733121
27	10	9	1.0443633596878
27	11	10	-1.4326373480726
27	12	11	1.1179019382689
27	13	12	-0.29365511750802
27	14	13	-1.28894732357
27	15	14	1.1390981976874
27	16	15	-1.4213339304551
27	17	16	-5.7192891807318
27	18	17	0.98289249799445
27	19	18	1.8503125759307
27	20	19	-0.41447317670099
27	21	20	5.3624622703623
27	22	21	-1.5737748790998
27	23	22	1.1443925171625
27	24	23	-1.2821569859516
27	25	24	1.6942634198349
27	26	25	-1.8058835507836
27	27	26	1.3396780234762
27	28	27	-1.3235173432622
27	29	28	0.71912145917304
27	30	29	-0.65791715634987
27	31	30	0.77502102032304
27	32	31	-1.5292514946777
27	33	32	1.9811748079956
27	34	33	0.45107307331637
27	35	34	-2.2813610380981
27	36	35	0.35841610911302
27	37	36	1.6976511622779
27	38	37	-1.2837493533734
27	39	38	1.7798848575912
27	40	39	-2.4924015426077
27	41	40	-0.30837026447989
27	42	41	2.7584919522051
27	43	42	-1.5256387037225
27	44	43	-0.30552775575779
27	45	44	-0.81850335001945
27	46	45	1.6086884681135
27	47	46	-0.085692084627226
27	48	47	-1.6598858821671
27	49	48	1.8478379203007
27	50	49	-1.7421950865537
27	51	50	1.0250978004187
27	52	51	0.43641212861985
27	53	52	-0.3117381928023
27	54	53	-1.2905061235651
27	55	54	0.12136457115412
27	56	55	2.1072258967906
27	57	56	-2.2882565371692
27	58	57	2.8023960564751
27	59	58	-1.7071144769434
27	60	59	1.8129353080876
27	61	60	-0.019028081791475
27	62	61	-1.4947072954383
27	63	62	-0.078738126670942
27	64	63	-1.3150414586999
27	65	64	1.4994317754172
27	66	65	0.35446623293683
27	67	66	-0.4181652192492
27	68	67	-1.3614779636264
27	69	68	2.7375171126332
27	70	69	-0.44954662537202
27	71	70	-0.41909745382145
27	72	71	0.819028619444
27	73	72	-0.41651983489282
27	74	73	-1.6518543704879
27	75	74	0.56883133831434
22	7	6	4.3381769349799
22	8	7	8.8801001384854
22	9	8	11.077772411798
22	10	9	12.122135771485
22	11	10	10.689498423413
22	12	11	11.807400361682
22	13	12	11.513745244174
22	14	13	10.224797920604
22	15	14	11.363896118291
22	16	15	9.9425621878359
22	17	16	4.2232730071041
22	18	17	5.2061655050985
22	19	18	7.0564780810293
22	20	19	6.6420049043283
22	21	20	12.004467174691
22	22	21	10.430692295591
22	23	22	11.575084812753
22	24	23	10.292927826802
22	25	24	11.987191246637
22	26	25	10.181307695853
22	27	26	11.520985719329
22	28	27	10.197468376067
22	29	28	10.91658983524
22	30	29	10.25867267889
22	31	30	11.033693699213
22	32	31	9.5044422045353
22	33	32	11.485617012531
22	34	33	11.936690085847
22	35	34	9.6553290477492
22	36	35	10.013745156862
22	37	36	11.71139631914
22	38	37	10.427646965767
22	39	38	12.207531823358
22	40	39	9.7151302807502
22	41	40	9.4067600162703
22	42	41	12.165251968475
22	43	42	10.639613264753
22	44	43	10.334085508995
22	45	44	9.5155821589756
22	46	45	11.124270627089
22	47	46	11.038578542462
22	48	47	9.3786926602948
22	49	48	11.226530580595
22	50	49	9.4843354940418
22	51	50	10.509433294461
22	52	51	10.94584542308
22	53	52	10.634107230278
22	54	53	9.3436011067129
22	55	54	9.4649656778671
22	56	55	11.572191574658
22	57	56	9.2839350374885
22	58	57	12.086331093964
22	59	58	10.37921661702
22	60	59	12.192151925108
22	61	60	12.173123843316
22	62	61	10.678416547878
22	63	62	10.599678421207
22	64	63	9.2846369625073
22	65	64	10.784068737924
22	66	65	11.138534970861
22	67	66	10.720369751612
22	68	67	9.3588917879857
22	69	68	12.096408900619
22	70	69	11.646862275247
22	71	70	11.227764821425
22	72	71	12.046793440869
22	73	72	11.630273605977
22	74	73	9.9784192354887
22	75	74	10.547250573803
16	6	5	142.43935027569
16	7	6	142.43935027569
16	8	7	138.10033391018
16	9	8	129.21851548607
16	10	9	118.13859954246
16	11	10	106.01411815646
16	12	11	95.322551331654
16	13	12	83.514740339032
16	14	13	72.000995094858
16	15	14	61.778852514583
16	16	15	50.418158395762
16	17	16	40.478397718827
16	18	17	36.256314701299
16	19	18	31.25144161633
16	20	19	27.441142624009
16	21	20	27
16	22	21	27
16	23	22	27
16	24	23	27
16	25	24	27.002179574033
16	26	25	27.007362103755
16	27	26	27.01
16	28	27	27.01
16	29	28	27.01
16	30	29	27.01
16	31	30	27.01
16	32	31	27.01
16	33	32	27.01
16	34	33	27.02
16	35	34	27.02
16	36	35	27.02
16	37	36	27.02
16	38	37	27.02
16	39	38	27.03
16	40	39	27.03
16	41	40	27.04
16	42	41	27.042890067656
16	43	42	27.04827292251
16	44	43	27.053740921446
16	45	44	27.059479728229
16	46	45	27.064763997205
16	47	46	27.114674376702
16	48	47	35.0845477564
16	49	48	44.55309792555
16	50	49	55.887149647001
16	51	50	65.462355890648
16	52	51	76.072486944652
16	53	52	87.123213753777
16	54	53	97.859163920573
16	55	54	107.29228663906
16	56	55	116.84798737824
16	57	56	128.53111475001
16	58	57	137.9040494145
16	59	58	150.10619455511
16	60	59	160.58491061969
16	61	60	172.8939415373
16	62	61	185.18376196209
16	63	62	195.96450312996
16	64	63	206.66578701407
16	65	64	216.03943033252
16	66	65	226.92687959727
16	67	66	238.17219315433
16	68	67	248.99528176896
16	69	68	258.44389175024
16	70	69	270.65626181128
16	71	70	282.41472520398
16	72	71	293.75012400572
16	73	72	305.91235540968
16	74	73	317.65411867037
16	75	74	327.72819514457
15	6	5	117.44952589481
15	7	6	117.44952589481
15	8	7	117.44868646429
15	9	8	117.44696817866
15	10	9	117.44482464685
15	11	10	117.44247903234
15	12	11	117.44041063094
15	13	12	117.44
15	14	13	117.44
15	15	14	117.43734465967
15	16	15	117.4341426602
15	17	16	117.4313411493
15	18	17	117.43015115972
15	19	18	118.54019032371
15	20	19	124.13263048312
15	21	20	130.74889209054
15	22	21	142.7561998869
15	23	22	153.1893604012
15	24	23	164.76718423071
15	25	24	175.05917516524
15	26	25	187.04118388215
15	27	26	197.2201166189
15	28	27	208.74184483912
15	29	28	218.93997041845
15	30	29	229.85726380267
15	31	30	240.11659762929
15	32	31	251.15100242456
15	33	32	260.65605716842
15	34	33	272.14236440367
15	35	34	284.07982378159
15	36	35	293.73577509298
15	37	36	303.75016561257
15	38	37	315.46231670412
15	39	38	325.89058416261
15	40	39	338.09890273317
15	41	40	347.81460758659
15	42	41	357.22155290331
15	43	42	369.38680487178
15	44	43	380.09099518788
15	45	44	390.52414592071
15	46	45	400.13094691813
15	47	46	411.36052952859
15	48	47	417.44
15	49	48	417.43
15	50	49	417.41
15	51	50	417.4
15	52	51	417.39
15	53	52	417.38
15	54	53	417.36
15	55	54	417.35
15	56	55	417.35
15	57	56	417.35
15	58	57	417.35
15	59	58	417.36
15	60	59	417.36
15	61	60	417.36
15	62	61	417.36
15	63	62	417.36853033465
15	64	63	417.37
15	65	64	417.37
15	66	65	417.37
15	67	66	417.37
15	68	67	417.38
15	69	68	417.38
15	70	69	417.38
15	71	70	417.39
15	72	71	417.39
15	73	72	417.39941773141
15	74	73	417.4
15	75	74	417.4
63	15	14	3.3455386367295
63	16	15	5.3892053616736
63	17	16	5.4806145786552
63	18	17	7.1913026684726
63	19	18	0.973
63	20	19	0.973
63	21	20	5.9355439040743
63	22	21	1.5840380928202
63	23	22	3.9918009739562
63	24	23	3.5120081780993
63	25	24	0.973
63	26	25	3.7321234601664
63	27	26	1.6083347681392
63	28	27	0.973
63	29	28	3.8002795517167
63	30	29	2.7838713232969
63	31	30	0.973
63	32	31	2.504847874857
63	33	32	2.8350637766327
63	34	33	0.973
63	35	34	6.3263784734273
63	36	35	0.973
63	37	36	6.884420794478
63	38	37	0.973
63	39	38	3.8444546569985
63	40	39	2.9148758779279
63	41	40	2.0178812083824
63	42	41	0.973
63	43	42	4.6960651975169
63	44	43	1.9946077483243
63	45	44	0.973
63	46	45	0.973
63	47	46	0.973
63	48	47	0.973
63	49	48	0.973
63	50	49	0.973
63	51	50	1.1135048385198
63	52	51	1.1104648790227
63	53	52	1.1100707964769
63	54	53	1.1100182900061
63	55	54	0.973
63	56	55	0.973
63	57	56	0.973
63	58	57	2.4088247919474
63	59	58	3.118209066586
63	60	59	4.420856013744
63	61	60	6.063159186178
63	62	61	6.2720117576806
63	63	62	5.8540062983772
63	64	63	4.685191430045
63	65	64	0.973
63	66	65	5.289845112885
63	67	66	1.3170308705152
63	68	67	0.973
63	69	68	0.973
63	70	69	3.6310004008652
63	71	70	3.0836495461623
63	72	71	0.973
63	73	72	2.3177466669377
63	74	73	1.6019396442089
63	75	74	1.9410134079401
62	15	14	2.1747559851734
62	16	15	2.5418741665548
62	17	16	1.9380381025374
62	18	17	2.1537052321015
62	19	18	-2.3892972597733
62	20	19	-2.1609989225759
62	21	20	2.2169354937272
62	22	21	0.013573592773245
62	23	22	1.0572153788536
62	24	23	0.7557156718715
62	25	24	-0.96076452353619
62	26	25	0.85877812886538
62	27	26	-0.028650805897872
62	28	27	-1.0831082912993
62	29	28	0.91191866518046
62	30	29	0.44352326423583
62	31	30	-1.6103956212944
62	32	31	0.41432907955389
62	33	32	0.5197121595569
62	34	33	-0.58009346058429
62	35	34	1.7809409890273
62	36	35	-2.1997344064793
62	37	36	2.0341734010626
62	38	37	-2.0575732233846
62	39	38	0.96835588335338
62	40	39	0.514633434901
62	41	40	0.13445159479789
62	42	41	-1.731839703183
62	43	42	1.3049811829618
62	44	43	0.13781914395691
62	45	44	-4.5
62	46	45	-0.37314719390415
62	47	46	-0.49333876049441
62	48	47	-3.3470995841761
62	49	48	-0.86420811652269
62	50	49	-0.11755742753632
62	51	50	-0.018930420746203
62	52	51	-0.065877682524439
62	53	52	-0.012796482795685
62	54	53	-0.0011864115573298
62	55	54	-0.00038140671367994
62	56	55	0
62	57	56	0
62	58	57	2.2226572368294
62	59	58	1.8430399890523
62	60	59	2.0367762609618
62	61	60	2.2375093692681
62	62	61	1.8598952766275
62	63	62	1.4391689548036
62	64	63	0.9205252423856
62	65	64	-0.59700049634557
62	66	65	1.0659802399343
62	67	66	-0.19634001890663
62	68	67	-0.30277301431633
62	69	68	-0.69415585594252
62	70	69	0.58306957967579
62	71	70	0.37710181397852
62	72	71	-0.69159441178199
62	73	72	0.15119043055456
62	74	73	-0.089116852963343
62	75	74	0.02569226482883
59	14	13	1.7215491539333
59	15	14	3.8963051391067
59	16	15	6.4381793056615
59	17	16	8.3762174081989
59	18	17	10.5299226403
59	19	18	8.1406253805271
59	20	19	5.9796264579511
59	21	20	8.1965619516783
59	22	21	8.2101355444516
59	23	22	9.2673509233052
59	24	23	10.023066595177
59	25	24	9.0623020716405
59	26	25	9.9210802005059
59	27	26	9.892429394608
59	28	27	8.8093211033087
59	29	28	9.7212397684892
59	30	29	10.164763032725
59	31	30	8.5543674114306
59	32	31	8.9686964909845
59	33	32	9.4884086505414
59	34	33	8.9083151899571
59	35	34	10.689256178984
59	36	35	8.489521772505
59	37	36	10.523695173568
59	38	37	8.466121950183
59	39	38	9.4344778335364
59	40	39	9.9491112684374
59	41	40	10.083562863235
59	42	41	8.3517231600523
59	43	42	9.6567043430141
59	44	43	9.794523486971
59	45	44	5.294523486971
59	46	45	4.9213762930669
59	47	46	4.4280375325725
59	48	47	1.0809379483963
59	49	48	0.21672983187365
59	50	49	0.099172404337336
59	51	50	0.080241983591133
59	52	51	0.014364301066694
59	53	52	0.0015678182710097
59	54	53	0.00038140671367994
59	55	54	0
59	56	55	0
59	57	56	0
59	58	57	2.2226572368294
59	59	58	4.0656972258817
59	60	59	6.1024734868435
59	61	60	8.3399828561116
59	62	61	10.199878132739
59	63	62	11.639047087543
59	64	63	12.559572329928
59	65	64	11.962571833583
59	66	65	13.028552073517
59	67	66	12.83221205461
59	68	67	12.529439040294
59	69	68	11.835283184352
59	70	69	12.418352764027
59	71	70	12.795454578006
59	72	71	12.103860166224
59	73	72	12.255050596778
59	74	73	12.165933743815
59	75	74	12.191626008644
51	13	12	208.39805157703
51	14	13	208.39805157703
51	15	14	206.67691241337
51	16	15	202.78153518689
51	17	16	196.34488914613
51	18	17	187.97066655036
51	19	18	177.44325163158
51	20	19	169.30456495679
51	21	20	163.36762606262
51	22	21	156.86913743336
51	23	22	154.60597887024
51	24	23	154.56557048089
51	25	24	154.56065326867
51	26	25	154.55620739752
51	27	26	154.55134021876
51	28	27	154.54648709579
51	29	28	154.54216533447
51	30	29	154.53739619535
51	31	30	154.53240946832
51	32	31	154.52821278464
51	33	32	154.52381283542
51	34	33	154.51915792082
51	35	34	154.51478759404
51	36	35	154.50954355613
51	37	36	154.50537868505
51	38	37	154.50021586965
51	39	38	154.49606247827
51	40	39	154.49143402157
51	41	40	154.48655309106
51	42	41	154.48160619999
51	43	42	154.47750893147
51	44	43	154.47277145275
51	45	44	154.4679663614
51	46	45	154.46536892324
51	47	46	154.46295454722
51	48	47	154.46078219806
51	49	48	154.46025190114
51	50	49	154.46014557574
51	51	50	154.46009692279
51	52	51	154.46005755691
51	53	52	154.46005050993
51	54	53	154.46004974078
51	55	54	154.46004955366
51	56	55	154.46004955366
51	57	56	154.46004955366
51	58	57	154.46004955366
51	59	58	154.74761902782
51	60	59	155.45540246239
51	61	60	159.13235692971
51	62	61	166.98980242454
51	63	62	177.18968055728
51	64	63	188.82872764482
51	65	64	201.38829997475
51	66	65	213.35087180833
51	67	66	226.37942388185
51	68	67	239.2111008258
51	69	68	251.73939016532
51	70	69	263.57358734461
51	71	70	275.99080060113
51	72	71	288.78508106879
51	73	72	300.88783058534
51	74	73	313.14175665922
51	75	74	325.30657405749
50	13	12	363.85109668815
50	14	13	363.85109668815
50	15	14	363.85191666869
50	16	15	363.85377249396
50	17	16	363.85683902375
50	18	17	363.86082864862
50	19	18	363.86584409165
50	20	19	363.86972150312
50	21	20	363.16096177243
50	22	21	358.65806249077
50	23	22	350.93549805978
50	24	23	341.67102932784
50	25	24	331.64796273267
50	26	25	322.58566066102
50	27	26	312.66458046052
50	28	27	302.77215106591
50	29	28	293.9628299626
50	30	29	284.24159019411
50	31	30	274.07682716139
50	32	31	265.52245974996
50	33	32	256.55376325897
50	34	33	247.06535460843
50	35	34	238.15703941847
50	36	35	227.46778323949
50	37	36	218.97826146699
50	38	37	208.45456629342
50	39	38	199.98844434323
50	40	39	190.5539665097
50	41	40	180.60485524126
50	42	41	170.52129237803
50	43	42	162.16956921797
50	44	43	152.51286487496
50	45	44	142.71834138799
50	46	45	137.42381790102
50	47	46	132.50244160795
50	48	47	128.07440407538
50	49	48	126.99346612698
50	50	49	126.77673629511
50	51	50	126.67756389077
50	52	51	126.59732190718
50	53	52	126.58295760611
50	54	53	126.58138978784
50	55	54	126.58100838113
50	56	55	126.58100838113
50	57	56	126.58100838113
50	58	57	126.58100838113
50	59	58	124.37816864284
50	60	59	120.40373904638
50	61	60	115.72748687926
50	62	61	113.45002243255
50	63	62	113.45231505519
50	64	63	113.45493115928
50	65	64	113.45775416947
50	66	65	113.46
50	67	66	113.46
50	68	67	113.46107022131
50	69	68	113.46336962286
50	70	69	113.46554163299
50	71	70	113.467820648
50	72	71	113.47016886869
50	73	72	113.47239016804
50	74	73	113.47463921385
50	75	74	113.47687190494
vector 362 FLScenario.node[73].veinsmobility posx ETV
vector 363 FLScenario.node[73].veinsmobility posy ETV
vector 364 FLScenario.node[72].veinsmobility speed ETV
vector 365 FLScenario.node[74].veinsmobility posx ETV
vector 366 FLScenario.node[74].veinsmobility posy ETV
vector 367 FLScenario.node[72].veinsmobility acceleration ETV
vector 368 FLScenario.node[72].veinsmobility co2emission ETV
vector 369 FLScenario.node[73].veinsmobility speed ETV
48	12	11	2.6862082068485
48	13	12	3.9485894681255
48	14	13	4.0002105002923
48	15	14	4.5659162532813
48	16	15	4.9561673864253
48	17	16	0.973
48	18	17	3.9970249658671
48	19	18	1.2349449104145
48	20	19	6.9323485912344
48	21	20	9.2091744277181
48	22	21	6.5003096307998
48	23	22	3.7603630623055
48	24	23	1.2578606865676
48	25	24	0.973
48	26	25	4.1065571077437
48	27	26	3.3401404813684
48	28	27	1.8085929998681
48	29	28	0.973
48	30	29	3.9156187699914
48	31	30	3.2456685364927
48	32	31	0.973
48	33	32	3.9413713583396
48	34	33	0.973
48	35	34	3.7323177762556
48	36	35	0.973
48	37	36	3.3437836954496
48	38	37	2.6478988768522
48	39	38	2.0172001265421
48	40	39	0.973
48	41	40	0.973
48	42	41	0.973
48	43	42	2.3346846769226
48	44	43	3.6487922663435
48	45	44	3.4420680127353
48	46	45	7.1992578542261
48	47	46	4.2548451909138
48	48	47	0.973
48	49	48	0.973
48	50	49	5.4901911413953
48	51	50	0.973
48	52	51	1.8523284106015
48	53	52	2.1317363603513
48	54	53	0.973
48	55	54	1.4978964092162
48	56	55	2.4893729982489
48	57	56	3.3398830659179
48	58	57	0.973
48	59	58	2.7534501440977
48	60	59	0.973
48	61	60	6.829253794441
48	62	61	2.1708097311274
48	63	62	0.973
48	64	63	5.4576723950968
48	65	64	0.973
48	66	65	3.0340329877474
48	67	66	3.2901720772234
48	68	67	0.973
48	69	68	0.973
48	70	69	5.7075947456303
48	71	70	1.9397421994859
48	72	71	0.973
48	73	72	5.2802595847427
48	74	73	0.973
48	75	74	0.973
48	76	75	0.973
48	77	76	9.0812023625352
47	12	11	1.4645417755703
47	13	12	1.8354299662868
47	14	13	1.4463647838216
47	15	14	1.4329721584218
47	16	15	1.3592640440213
47	17	16	-2.5145522160281
47	18	17	1.158841252164
47	19	18	-0.16641308669932
47	20	19	2.0537621400552
47	21	20	2.3478866785532
47	22	21	1.3013225330573
47	23	22	0.46893964910414
47	24	23	-0.23706799391657
47	25	24	-1.048620010959
47	26	25	0.61519215807784
47	27	26	0.36660318616778
47	28	27	-0.074836893775499
47	29	28	-0.89129236685112
47	30	29	0.56117712361738
47	31	30	0.34263959701639
47	32	31	-0.87720819036476
47	33	32	0.5665727376705
47	34	33	-0.44401115083601
47	35	34	0.50068520314526
47	36	35	-0.34772124823648
47	37	36	0.38360839802772
47	38	37	0.17085378158372
47	39	38	-0.01273789925035
47	40	39	-1.8656310874751
47	41	40	-4.4973578178091
47	42	41	-3.5081163343741
47	43	42	0.78167050528105
47	44	43	1.398754352401
47	45	44	1.0549514658561
47	46	45	2.3162660283735
47	47	46	0.95733646241629
47	48	47	-0.67146354033546
47	49	48	-0.47472703685797
47	50	49	1.3907677955878
47	51	50	-0.6708602399211
47	52	51	0.051790815988184
47	53	52	0.15529200118837
47	54	53	-0.77599185907213
47	55	54	-0.072328380181421
47	56	55	0.32679557255452
47	57	56	0.61819556849853
47	58	57	-0.66824744896624
47	59	58	0.40920749208207
47	60	59	-0.22133530509969
47	61	60	1.7267258065903
47	62	61	0.10817891236153
47	63	62	-1.8449016875262
47	64	63	1.3108404078893
47	65	64	-1.4233215203495
47	66	65	0.50736376495838
47	67	66	0.56006357592545
47	68	67	-0.59491695515957
47	69	68	-0.58685181689557
47	70	69	1.4188556847452
47	71	70	0.049260905598267
47	72	71	-0.84646892761564
47	73	72	1.2075830298958
47	74	73	-0.25059407175564
47	75	74	-1.0146730423537
47	76	75	-0.47110095959938
47	77	76	2.387864843267
44	11	10	2.450429067295
44	12	11	3.9149708428653
44	13	12	5.7504008091521
44	14	13	7.1967655929737
44	15	14	8.6297377513954
44	16	15	9.9890017954167
44	17	16	7.4744495793886
44	18	17	8.6332908315526
44	19	18	8.4668777448533
44	20	19	10.520639884908
44	21	20	12.868526563462
44	22	21	14.169849096519
44	23	22	14.638788745623
44	24	23	14.401720751707
44	25	24	13.353100740748
44	26	25	13.968292898825
44	27	26	14.334896084993
44	28	27	14.260059191218
44	29	28	13.368766824367
44	30	29	13.929943947984
44	31	30	14.272583545
44	32	31	13.395375354636
44	33	32	13.961948092306
44	34	33	13.51793694147
44	35	34	14.018622144615
44	36	35	13.670900896379
44	37	36	14.054509294407
44	38	37	14.22536307599
44	39	38	14.21262517674
44	40	39	12.346994089265
44	41	40	7.8496362714557
44	42	41	4.3415199370817
44	43	42	5.1231904423627
44	44	43	6.5219447947637
44	45	44	7.5768962606198
44	46	45	9.8931622889933
44	47	46	10.85049875141
44	48	47	10.179035211074
44	49	48	9.7043081742162
44	50	49	11.095075969804
44	51	50	10.424215729883
44	52	51	10.476006545871
44	53	52	10.631298547059
44	54	53	9.8553066879873
44	55	54	9.7829783078059
44	56	55	10.10977388036
44	57	56	10.727969448859
44	58	57	10.059721999893
44	59	58	10.468929491975
44	60	59	10.247594186875
44	61	60	11.974319993465
44	62	61	12.082498905827
44	63	62	10.237597218301
44	64	63	11.54843762619
44	65	64	10.125116105841
44	66	65	10.632479870799
44	67	66	11.192543446724
44	68	67	10.597626491565
44	69	68	10.010774674669
44	70	69	11.429630359414
44	71	70	11.478891265013
44	72	71	10.632422337397
44	73	72	11.840005367293
44	74	73	11.589411295537
44	75	74	10.574738253184
44	76	75	10.103637293584
44	77	76	12.491502136851
34	10	9	349.92
34	11	10	349.92
34	12	11	351.4154692906
34	13	12	351.66
34	14	13	351.66
34	15	14	351.66
34	16	15	351.66
34	17	16	351.66
34	18	17	350.90966919962
34	19	18	344.17527121195
34	20	19	335.72407598511
34	21	20	325.2034361002
34	22	21	312.33490953674
34	23	22	298.16506044022
34	24	23	283.5262716946
34	25	24	269.12455094289
34	26	25	255.77145020214
34	27	26	241.80315730332
34	28	27	227.46539239331
34	29	28	213.1992650918
34	30	29	199.83202404884
34	31	30	185.90539754405
34	32	31	171.63621304252
34	33	32	158.24153235512
34	34	33	144.27958426281
34	35	34	130.76164732134
34	36	35	116.74302517673
34	37	36	103.07212428035
34	38	37	89.019852998768
34	39	38	74.800778765871
34	40	39	60.589626733211
34	41	40	48.242632643946
34	42	41	40.392996372491
34	43	42	36.051476435409
34	44	43	31.132224417978
34	45	44	27.474501399258
34	46	45	27.052443751334
34	47	46	27.057937701118
34	48	47	27.063963286622
34	49	48	27.069615989638
34	50	49	31.395148650992
34	51	50	42.52888506781
34	52	51	53.052981121533
34	53	52	63.629364479349
34	54	53	74.362479037731
34	55	54	84.312212758059
34	56	55	94.188924728548
34	57	56	104.39556506862
34	58	57	115.22632725465
34	59	58	125.38248589505
34	60	59	135.95177485917
34	61	60	146.29760670676
34	62	61	158.3866669623
34	63	62	170.5849936816
34	64	63	180.92073272555
34	65	64	192.57987843371
34	66	65	202.80200757115
34	67	66	213.53641477542
34	68	67	224.83625455586
34	69	68	235.53547426204
34	70	69	245.64216532891
34	71	70	257.18136483488
34	72	71	268.77029748178
34	73	72	279.50463310115
34	74	73	291.45810463514
34	75	74	303.15861680312
34	76	75	313.83467835108
34	77	76	324.03517327528
33	10	9	414.84
33	11	10	414.84
33	12	11	412.24359212821
33	13	12	407.49460008984
33	14	13	401.74419928069
33	15	14	394.54743368771
33	16	15	385.91769593632
33	17	16	375.9286941409
33	18	17	368.54434136217
33	19	18	364.00395308696
33	20	19	363.77375432118
33	21	20	363.77958346878
33	22	21	363.78671350474
33	23	22	363.79456456158
33	24	23	363.80267544278
33	25	24	363.81065497224
33	26	25	363.81805349513
33	27	26	363.82579287618
33	28	27	363.83573765003
33	29	28	363.84787387062
33	30	29	363.85517769221
33	31	30	363.86181257859
33	32	31	363.86861066553
33	33	32	363.87907619545
33	34	33	363.89078588695
33	35	34	363.89865277556
33	36	35	363.90681104257
33	37	36	363.91476694998
33	38	37	363.92223801283
33	39	38	363.92852685592
33	40	39	363.93610913715
33	41	40	363.94304175596
33	42	41	363.94744918789
33	43	42	363.94988687454
33	44	43	365.09222082492
33	45	44	370.14097143823
33	46	45	377.73273992445
33	47	46	387.72074063294
33	48	47	398.67525507945
33	49	48	408.951869162
33	50	49	416.92110153998
33	51	50	417.43
33	52	51	417.42
33	53	52	417.41
33	54	53	417.39
33	55	54	417.38
33	56	55	417.37
33	57	56	417.36
33	58	57	417.35
33	59	58	417.35
33	60	59	417.35
33	61	60	417.35
33	62	61	417.36
33	63	62	417.36
33	64	63	417.36
33	65	64	417.36
33	66	65	417.37
33	67	66	417.37
33	68	67	417.37
33	69	68	417.37
33	70	69	417.38
33	71	70	417.38
33	72	71	417.38
33	73	72	417.38267306163
33	74	73	417.39
33	75	74	417.39
33	76	75	417.4
33	77	76	417.4
223	47	46	4.2613789407075
223	48	47	3.5629085509023
223	49	48	4.1563316698374
223	50	49	4.5229113257311
223	51	50	0.973
223	52	51	0.973
223	53	52	0.973
[...]
477	635	166	-0.048026845324785
477	636	167	0.10219962168485
477	637	168	0.043165973760188
477	638	169	-0.13513033529744
477	639	170	-0.10002418700606
477	640	171	0.16135509554297
477	641	172	-0.12780505092815
477	642	173	-0.134320069151
477	643	174	-0.03199977404438
477	644	175	0.21572825582698
477	645	176	0.17080456023105
477	646	177	-0.057315152278171
477	647	178	-0.12028425922617
477	648	179	-0.1327463446185
477	649	180	0.28807414965704
477	650	181	-0.3176428235136
477	651	182	0.024888119660318
477	652	183	0.27339454069734
477	654	184	-0.32451470084488
477	759	185	0.14065498332493
477	760	186	-0.033886542264372
477	761	187	0.27736448999494
477	762	188	-0.42734897704795
477	763	189	0.24810634818859
477	764	190	0.083120392542332
477	765	191	-0.067945789312944
477	767	192	-0.0037353433202956
477	854	193	-0.16098777065054
477	855	194	0.0071529284119611
477	856	195	0.11279103308916
477	857	196	0.34688222520053
477	858	197	-0.34976273537614
477	859	198	0.018691189633683
477	860	199	0.059270762465895
477	861	200	-0.01707137147896
477	862	201	-0.25281724222004
477	863	202	0.16025344999507
477	864	203	0.18182404576801
477	865	204	-0.3157146521844
477	866	205	0.18752489495091
477	867	206	-0.022902106074616
477	868	207	0.13764125914313
477	869	208	0.014423455763608
477	870	209	-0.15124264354818
477	871	210	0.16012424952351
477	872	211	0.17238938743249
477	873	212	-0.46005312949419
477	874	213	-0.015492244111375
477	875	214	-0.043432564660907
477	876	215	0.27874830546789
477	877	216	-0.125215600105
477	878	217	0.20542019368149
477	879	218	0.022307739732787
477	880	219	-0.34633233053349
477	882	220	0.48859549695366
477	945	221	-0.36601784136146
477	946	222	-0.18624853086658
477	947	223	0.40158713785931
477	949	224	0.10590615039691
477	1006	225	-0.14027115264907
477	1007	226	0.17616842519492
477	1008	227	-0.36739636086859
477	1010	228	0.20623948881403
477	1061	229	-0.31688999882899
477	1062	230	0.1171520173084
477	1063	231	0.027184451697394
477	1064	232	0.20847340207547
477	1065	233	-0.19848168371245
477	1066	234	0.080373832583427
477	1067	235	0.20173455798067
477	1068	236	-0.0080219148192553
477	1069	237	-0.34802846079692
477	1070	238	-0.10171024077572
477	1072	239	0.40526648629457
477	1112	240	-0.47196519216523
477	1113	241	0.30045846914873
477	1114	242	0.23701085778885
477	1115	243	0.035244704363867
477	1116	244	-1.8191429989161
477	1117	245	1.0107578553725
477	1119	246	0.67769758475297
477	1140	247	-0.12821635580622
477	1141	248	0.24673807150684
477	1142	249	-0.53871396048926
477	1143	250	0.14925879919901
477	1144	251	0.10016132332385
477	1145	252	-0.18863596245646
477	1146	253	-0.050810832716524
477	1147	254	0.36217969036661
477	1148	255	-0.16182528818026
477	1149	256	0.052817303594201
477	1150	257	0.26040199957788
477	1151	258	-0.17952423510142
477	1152	259	-0.30820677210577
477	1153	260	0.014629687462002
477	1154	261	0.42474853028543
477	1155	262	-0.072081024711952
477	1156	263	-0.0021796236746008
477	1157	264	-0.42746702833101
477	1158	265	0.32514502401464
477	1159	266	-0.13094493155368
477	1160	267	-0.044321536459029
477	1161	268	-0.11328156050295
477	1162	269	0.47695016744547
477	1163	270	-0.33436953644268
477	1164	271	0.20754428906366
477	1165	272	-0.12517051901668
477	1166	273	0.093926596222445
477	1167	274	-0.12755229407921
477	1168	275	-0.072148186527193
477	1169	276	0.41903078807518
477	1170	277	-0.39422092186287
477	1171	278	-0.059772682841867
477	1172	279	0.42611512360163
477	1173	280	-0.26995824133046
477	1174	281	0.27660290063359
477	1175	282	-0.14387506912462
477	1176	283	0.1125056526158
477	1177	284	-0.29255148740485
477	1178	285	-0.060494727361948
477	1179	286	-0.16795480297878
477	1180	287	0.26526148561388
477	1181	288	0.1015691250097
477	1182	289	-0.18379961675964
477	1183	290	0.14731702683494
477	1184	291	0.26564351404086
472	98	97	1.1735273346305
472	99	98	2.1730214263313
472	100	99	3.0764769637026
472	101	100	4.2456017409917
472	102	101	5.3511392151006
472	103	102	5.1998171856679
472	104	103	5.1859880131255
472	105	104	5.3070657548546
472	106	105	5.3100291070114
472	107	106	4.9661069668416
472	108	107	5.4083499935042
472	109	108	5.3851993033714
472	110	109	4.9725990493834
472	111	110	5.4749763541907
472	112	111	4.9973681451805
472	113	112	5.3707760927785
472	114	113	5.4096937395684
472	115	114	5.2940437099948
472	116	115	5.3297242807276
472	117	116	5.473588417755
472	118	117	5.3827230589516
472	119	118	5.0048814409464
472	120	119	2.8477866560146
472	121	120	0.19180780638826
472	122	121	0.11991203155922
472	123	122	0.0039009404773854
472	124	123	0.001080482097854
472	125	124	0.00037298121103163
472	126	125	0.00028114003928889
472	127	126	0
472	128	127	0.11843124327875
472	129	128	0.35716591249569
472	130	129	0.64633285990902
472	131	130	1.0844068478481
472	132	131	1.1719440079448
472	133	132	0.4673975863737
472	134	133	0.20715218533906
472	135	134	0.030391630393169
472	136	135	0.047021024127258
472	137	136	0.019550718601232
472	138	137	0.1958192884547
472	139	138	0.56843438341035
472	140	139	1.4273359044151
472	141	140	2.2980006940824
472	142	141	3.4446265658525
472	143	142	4.2369255306361
472	144	143	5.1902587628619
472	145	144	5.4282066201377
472	146	145	5.1534580863598
472	147	146	5.3579590234492
472	148	147	5.4160196526959
472	149	148	3.4631947966407
472	150	149	4.4365664887356
472	151	150	5.4750111077964
472	152	151	5.4495220887992
472	153	152	5.3642348006419
472	155	153	5.3143223926942
472	416	154	5.1824981116276
472	417	155	5.0050541279889
472	418	156	5.1173790100548
472	419	157	5.0986839985527
472	420	158	5.0244851535704
472	421	159	5.4725584472581
472	423	160	5.1117743198812
472	630	161	5.4445087608933
472	631	162	5.0714519341528
472	632	163	5.3924843608919
472	633	164	5.3755675185989
472	634	165	5.2766752722725
472	635	166	5.2286484269477
472	636	167	5.3308480486326
472	637	168	5.3740140223927
472	638	169	5.2388836870953
472	639	170	5.1388595000892
472	640	171	5.3002145956322
472	641	172	5.1724095447041
472	642	173	5.0380894755531
472	643	174	5.0060897015087
472	644	175	5.2218179573357
472	645	176	5.3926225175667
472	646	177	5.3353073652885
472	647	178	5.2150231060624
472	648	179	5.0822767614439
472	649	180	5.3703509111009
472	650	181	5.0527080875873
472	651	182	5.0775962072476
472	652	183	5.350990747945
472	654	184	5.0264760471001
472	759	185	5.167131030425
472	760	186	5.1332444881606
472	761	187	5.4106089781556
472	762	188	4.9832600011076
472	763	189	5.2313663492962
472	764	190	5.3144867418386
472	765	191	5.2465409525256
472	767	192	5.2428056092053
472	854	193	5.0818178385548
472	855	194	5.0889707669667
472	856	195	5.2017618000559
472	857	196	5.5486440252564
472	858	197	5.1988812898803
472	859	198	5.217572479514
472	860	199	5.2768432419799
472	861	200	5.2597718705009
472	862	201	5.0069546282809
472	863	202	5.167208078276
472	864	203	5.349032124044
472	865	204	5.0333174718596
472	866	205	5.2208423668105
472	867	206	5.1979402607359
472	868	207	5.335581519879
472	869	208	5.3500049756426
472	870	209	5.1987623320944
472	871	210	5.3588865816179
472	872	211	5.5312759690504
472	873	212	5.0712228395562
472	874	213	5.0557305954448
472	875	214	5.0122980307839
472	876	215	5.2910463362518
472	877	216	5.1658307361468
472	878	217	5.3712509298283
472	879	218	5.3935586695611
472	880	219	5.0472263390276
472	882	220	5.5358218359813
472	945	221	5.1698039946198
472	946	222	4.9835554637532
472	947	223	5.3851426016125
472	949	224	5.4910487520095
472	1006	225	5.3507775993604
472	1007	226	5.5269460245553
472	1008	227	5.1595496636867
472	1010	228	5.3657891525007
472	1061	229	5.0488991536717
472	1062	230	5.1660511709801
472	1063	231	5.1932356226775
472	1064	232	5.401709024753
472	1065	233	5.2032273410406
472	1066	234	5.283601173624
472	1067	235	5.4853357316047
472	1068	236	5.4773138167854
472	1069	237	5.1292853559885
472	1070	238	5.0275751152128
472	1072	239	5.4328416015073
472	1112	240	4.9608764093421
472	1113	241	5.2613348784908
472	1114	242	5.4983457362797
472	1115	243	5.5335904406435
472	1116	244	3.7144474417274
472	1117	245	4.7252052970999
472	1119	246	5.4029028818529
472	1140	247	5.2746865260467
472	1141	248	5.5214245975535
472	1142	249	4.9827106370642
472	1143	250	5.1319694362633
472	1144	251	5.2321307595871
472	1145	252	5.0434947971306
472	1146	253	4.9926839644141
472	1147	254	5.3548636547807
472	1148	255	5.1930383666005
472	1149	256	5.2458556701947
472	1150	257	5.5062576697725
472	1151	258	5.3267334346711
472	1152	259	5.0185266625654
472	1153	260	5.0331563500274
472	1154	261	5.4579048803128
472	1155	262	5.3858238556008
472	1156	263	5.3836442319262
472	1157	264	4.9561772035952
472	1158	265	5.2813222276099
472	1159	266	5.1503772960562
472	1160	267	5.1060557595972
472	1161	268	4.9927741990942
472	1162	269	5.4697243665397
472	1163	270	5.135354830097
472	1164	271	5.3428991191607
472	1165	272	5.217728600144
472	1166	273	5.3116551963664
472	1167	274	5.1841029022872
472	1168	275	5.11195471576
472	1169	276	5.5309855038352
472	1170	277	5.1367645819723
472	1171	278	5.0769918991305
472	1172	279	5.5031070227321
472	1173	280	5.2331487814016
472	1174	281	5.5097516820352
472	1175	282	5.3658766129106
472	1176	283	5.4783822655264
472	1177	284	5.1858307781215
472	1178	285	5.1253360507596
472	1179	286	4.9573812477808
472	1180	287	5.2226427333947
472	1181	288	5.3242118584044
472	1182	289	5.1404122416447
472	1183	290	5.2877292684797
472	1184	291	5.5533727825205
465	97	96	84.539778322034
465	98	97	84.539778322034
465	99	98	84.539630196148
465	100	99	84.539355911336
465	101	100	84.538967589851
465	102	101	84.538431698183
465	103	102	84.537756262498
465	104	103	84.5370999271
465	105	104	84.53644533726
465	106	105	84.535775464649
465	107	106	84.535105217996
465	108	107	84.534478382153
465	109	108	84.533795725165
465	110	109	84.53311599032
465	111	110	84.532488335029
465	112	111	84.531797268275
465	113	112	84.531166486559
465	114	113	84.530488572253
465	115	114	84.529805745653
465	116	115	84.529137516721
465	117	116	84.528464784089
465	118	117	84.527773892524
465	119	118	84.527094470239
465	120	119	84.526462740173
465	121	120	84.526103284616
465	122	121	84.5260790741
465	123	122	84.52606393847
465	124	123	84.526063446083
465	125	124	84.526063309701
465	126	125	84.526063262622
465	127	126	84.526063227136
465	128	127	84.526063227136
465	129	128	84.526048278415
465	130	129	84.526003195939
465	131	130	84.525921614007
465	132	131	84.525784737157
465	133	132	84.525636811122
465	134	133	84.525577814898
465	135	134	84.525551667572
465	136	135	84.525547831456
465	137	136	84.525541896332
465	138	137	84.525539428586
465	139	138	84.52551471173
465	140	139	84.52544296236
465	141	140	84.52526280005
465	142	141	84.524972740006
465	143	142	84.524537949654
465	144	143	84.524003153121
465	145	144	84.523348024215
465	146	145	84.522662860867
465	147	146	84.522012377044
465	148	147	84.521336080544
465	149	148	84.52065245547
465	150	149	84.520215321383
465	151	150	84.920875086386
465	152	151	87.537421159284
465	153	152	92.590506818308
465	155	153	97.939450825586
465	416	154	103.25377321828
465	417	155	108.43627132991
465	418	156	113.4413254579
465	419	157	118.55870446795
465	420	158	123.6573884665
465	421	159	128.68187362007
465	423	160	134.15443206733
465	630	161	139.26620638721
465	631	162	144.71071514811
465	632	163	149.78216708226
465	633	164	155.17465144315
465	634	165	160.55021896175
465	635	166	165.82689423402
465	636	167	171.05498644695
465	637	168	176.38456494378
465	638	169	181.7572991343
465	639	170	186.99493517108
465	640	171	192.1325708418
465	641	172	197.43152318104
465	642	173	202.60270090637
465	643	174	207.63959055114
465	644	175	212.62756955768
465	645	176	217.43405617938
465	646	177	219.84994813219
465	647	178	220.20974360515
465	648	179	220.20927847644
465	649	180	220.20882518739
465	650	181	220.20834620497
465	651	182	220.20789555316
465	652	183	220.20744268158
465	654	184	220.20696542589
465	759	185	220.20651711372
465	760	186	220.20605625651
465	761	187	220.20559842165
465	762	188	220.2051158486
465	763	189	220.20467139088
465	764	190	220.20420480451
465	765	191	220.20373080463
465	767	192	220.20326286483
465	854	193	220.2027952582
465	855	194	220.20234201008
465	856	195	220.201888124
465	857	196	220.20142417807
465	858	197	220.20092929366
465	859	198	220.20046560464
465	860	199	220.20000024855
465	861	200	220.19952960609
465	862	201	220.19906048623
465	863	202	220.19861391518
465	864	203	220.1981530511
465	865	204	220.1976759701
465	866	205	220.19722704774
465	867	206	220.19676140001
465	868	207	220.19629779492
465	869	208	220.19582191359
465	870	209	220.19534474582
465	871	210	220.19488106741
465	872	211	220.1944031075
465	873	212	220.19390977214
465	874	213	220.193457469
465	875	214	220.19300654761
465	876	215	220.19255949998
465	877	216	220.19208759075
465	878	217	220.19162684951
465	879	218	220.19114778682
465	880	219	220.19066673449
465	882	220	220.1902165716
465	945	221	220.63281438426
465	946	222	222.32362335816
465	947	223	225.84978078507
465	949	224	230.91852639559
465	1006	225	236.38689590359
465	1007	226	241.73718251584
465	1008	227	247.26362138807
465	1010	228	252.4226976117
465	1061	229	257.78799439963
465	1062	230	262.83643026654
465	1063	231	268.00200740089
465	1064	232	273.19476649249
465	1065	233	278.59597985667
465	1066	234	283.79872974979
465	1067	235	289.08184610041
465	1068	236	294.56667849785
465	1069	237	300.04348971656
465	1070	238	305.17230440955
465	1072	239	310.19941819469
465	1112	240	315.63176127889
465	1113	241	320.59218247843
465	1114	242	325.85303457707
465	1115	243	331.35087578538
465	1116	244	336.88395846401
465	1117	245	340.59806506821
465	1119	246	345.29539412457
465	1140	247	350.31681565364
465	1141	248	353.8431158946
465	1142	249	355.33028178869
465	1143	250	355.64
465	1144	251	355.64
465	1145	252	355.64
465	1146	253	355.64
465	1147	254	355.64
465	1148	255	355.64
465	1149	256	355.64
465	1150	257	355.64
465	1151	258	355.64
465	1152	259	355.65
465	1153	260	355.65
465	1154	261	355.65
465	1155	262	355.65
465	1156	263	355.65
465	1157	264	355.65
465	1158	265	355.65
465	1159	266	355.65
465	1160	267	355.65
465	1161	268	355.65
465	1162	269	355.65
465	1163	270	355.65
465	1164	271	355.65
465	1165	272	355.65
465	1166	273	355.65
465	1167	274	355.65
465	1168	275	355.65
465	1169	276	355.65
465	1170	277	355.66
465	1171	278	355.66
465	1172	279	355.66
465	1173	280	355.66
465	1174	281	355.66
465	1175	282	355.66
465	1176	283	355.66
465	1177	284	355.66
465	1178	285	355.66
465	1179	286	355.66
465	1180	287	355.66
465	1181	288	355.66
465	1182	289	355.66
465	1183	290	355.66
465	1184	291	355.66
464	97	96	193.98635452089
464	98	97	193.98635452089
464	99	98	195.15995591846
464	100	99	197.3331144872
464	101	100	200.40978561165
464	102	101	204.65565529847
464	103	102	210.00713223142
464	104	103	215.20727758478
464	105	104	220.39359289283
464	106	105	225.70099358399
464	107	106	231.01135781433
464	108	107	235.97777819909
464	109	108	241.38646952109
464	110	109	246.77200869188
464	111	110	251.74492156891
464	112	111	257.22024345648
464	113	112	262.21792699252
464	114	113	267.58904204245
464	115	114	272.99907719532
464	116	115	278.29345501978
464	117	116	283.62351566682
464	118	117	289.09744953036
464	119	118	294.48051230045
464	120	119	299.48570960643
464	121	120	302.33367599022
464	122	121	302.52549590187
464	123	122	302.64541550124
464	124	123	302.64931668792
464	125	124	302.6503972382
464	126	125	302.65077024295
464	127	126	302.65105140074
464	128	127	302.65105140074
464	129	128	302.76949011838
464	130	129	303.12667857211
464	131	130	303.77305222299
464	132	131	304.85752750926
464	133	132	306.02954548022
464	134	133	306.49697256471
464	135	134	306.70413782371
464	136	135	306.73453137216
464	137	136	306.78155536385
464	138	137	306.80110731632
464	139	138	306.99693896321
464	140	139	307.5654092213
464	141	140	308.99283520687
464	142	141	311.29098093098
464	143	142	314.735824892
464	144	143	318.97301782091
464	145	144	324.16360414822
464	146	145	329.59215335003
464	147	146	334.7459366783
464	148	147	340.10423385
464	149	148	345.52059531524
464	150	149	348.98400867892
464	151	150	353.38922558166
464	152	151	357.973022945
464	153	152	359.71332391259
464	155	153	359.91775395684
464	416	154	359.9146612377
464	417	155	359.91164523492
464	418	156	359.90873249731
464	419	157	359.90575439119
464	420	158	359.90278716481
464	421	159	359.89986311913
464	423	160	359.89667831305
464	630	161	359.89370346864
464	631	162	359.89053498633
464	632	163	359.88640349322
464	633	164	359.88173265358
464	634	165	359.8770764669
464	635	166	359.8725059383
464	636	167	359.86888757196
464	637	168	359.86634846835
464	638	169	359.8637888046
464	639	170	359.86129350397
464	640	171	359.85884584524
464	641	172	359.85632133245
464	642	173	359.85385769371
464	643	174	359.85145803213
464	644	175	359.58588590195
464	645	176	357.79796765429
464	646	177	353.16492703825
464	647	178	347.85530092323
464	648	179	342.64027781717
464	649	180	337.55800105572
464	650	181	332.18765014462
464	651	182	327.13494205704
464	652	183	322.05734584979
464	654	184	316.70635510184
464	759	185	311.67987905474
464	760	186	306.51274802432
464	761	187	301.37950353616
464	762	188	295.968894558
464	763	189	290.98563455689
464	764	190	285.7542682076
464	765	191	280.43978146576
464	767	192	275.19324051323
464	854	193	269.95043490403
464	855	194	264.86861706547
464	856	195	259.77964629851
464	857	196	254.57788449845
464	858	197	249.02924047319
464	859	198	243.83035918331
464	860	199	238.6127867038
464	861	200	233.33594346182
464	862	201	228.07617159132
464	863	202	223.06921696304
464	864	203	217.90200888476
464	865	204	212.55297676072
464	866	205	207.51965928886
464	867	206	202.29881692205
464	868	207	197.10087666131
464	869	208	191.76529514143
464	870	209	186.41529016579
464	871	210	181.2165278337
464	872	211	175.85764125208
464	873	212	170.32636528303
464	874	213	165.25514244347
464	875	214	160.19941184803
464	876	215	155.18711381724
464	877	216	149.89606748099
464	878	217	144.73023674485
464	879	218	139.35898581502
464	880	219	133.96542714546
464	882	220	128.91820080643
464	945	221	123.41190001186
464	946	222	118.63417456946
464	947	223	115.31673230014
464	949	224	113.80554482142
464	1006	225	113.46055187591
464	1007	226	113.46153385015
464	1008	227	113.46254815479
464	1010	228	113.46349503489
464	1061	229	113.46447976405
464	1062	230	113.46540633757
464	1063	231	113.46635441083
464	1064	232	113.46730747297
464	1065	233	113.46829879414
464	1066	234	113.46925368996
464	1067	235	113.47022333598
464	1068	236	113.47123000431
464	1069	237	113.47223520046
464	1070	238	113.47317652646
464	1072	239	113.4740991866
464	1112	240	113.47509622121
464	1113	241	113.47600664081
464	1114	242	113.47697220053
464	1115	243	113.47798125645
464	1116	244	113.47899678048
464	1117	245	113.47967845555
464	1119	246	113.89570106405
464	1140	247	115.58889224603
464	1141	248	119.30657499431
464	1142	249	124.52316715496
464	1143	250	129.48471033908
464	1144	251	134.61645308345
464	1145	252	139.84835272678
464	1146	253	144.89162474017
464	1147	254	149.88408816528
464	1148	255	155.23871528239
464	1149	256	160.43152425953
464	1150	257	165.6771482072
464	1151	258	171.18316265185
464	1152	259	176.50961079267
464	1153	260	181.5279157744
464	1154	261	186.56084979736
464	1155	262	192.01851358841
464	1156	263	197.40409953874
464	1157	264	202.78750596168
464	1158	265	207.74346423857
464	1159	266	213.02455317701
464	1160	267	218.17470296805
464	1161	268	223.28053318044
464	1162	269	228.27308683625
464	1163	270	233.74256959142
464	1164	271	238.87769758009
464	1165	272	244.22036069008
464	1166	273	249.43785881014
464	1167	274	254.74927937745
464	1168	275	259.93315328499
464	1169	276	265.04488219296
464	1170	277	270.57557287561
464	1171	278	275.71211055389
464	1172	279	280.78887818963
464	1173	280	286.2917421264
464	1174	281	291.52465974657
464	1175	282	297.03416804914
464	1176	283	302.3998076379
464	1177	284	307.87794790962
464	1178	285	313.06354961667
464	1179	286	318.18865926855
464	1180	287	323.14582153645
464	1181	288	328.36823357269
464	1182	289	333.69221024738
464	1183	290	338.8323954242
464	1184	291	344.11989112049

