version 2
run Default-0-20220517-09:25:32-341
attr configname Default
attr datetime 20220517-09:25:32
attr experiment Default
attr inifile omnetpp.ini
attr iterationvars ""
attr iterationvarsf ""
attr measurement ""
attr network FLScenario
attr processid 341
attr repetition 0
attr replication #0
attr resultdir results
attr runnumber 0
attr seedset 0
param *.playgroundSizeX 2500m
param *.playgroundSizeY 2500m
param *.playgroundSizeZ 50m
param *.annotations.draw true
param *.manager.updateInterval 1s
param *.manager.host "\"localhost\""
param *.manager.port 9999
param *.manager.autoShutdown true
param *.manager.launchConfig "xmldoc(\"Town01.launchd.xml\")"
param *.connectionManager.sendDirect true
param *.connectionManager.maxInterfDist 2600m
param *.connectionManager.drawMaxIntfDist false
param *.**.nic.mac1609_4.useServiceChannel false
param *.**.nic.mac1609_4.txPower 20mW
param *.**.nic.mac1609_4.bitrate 6Mbps
param *.**.nic.phy80211p.minPowerLevel -110dBm
param *.**.nic.phy80211p.useNoiseFloor true
param *.**.nic.phy80211p.noiseFloor -98dBm
param *.**.nic.phy80211p.decider "xmldoc(\"config.xml\")"
param *.**.nic.phy80211p.analogueModels "xmldoc(\"config.xml\")"
param *.**.nic.phy80211p.usePropagationDelay true
param *.**.nic.phy80211p.antenna "xmldoc(\"antenna.xml\", \"/root/Antenna[@id='monopole']\")"
param *.node[*].nic.phy80211p.antennaOffsetY "0 m"
param *.node[*].nic.phy80211p.antennaOffsetZ "1.895 m"
param *.node[*].applType "\"CarAppLayer\""
param *.node[*].appl.headerLength "80 bit"
param *.node[*].appl.sendBeacons false
param *.node[*].appl.dataOnSch false
param *.node[*].appl.beaconInterval 1s
param *.node[*].veinsmobility.x 0
param *.node[*].veinsmobility.y 0
param *.node[*].veinsmobility.z 0
param *.node[*].veinsmobility.setHostSpeed false
param *.node[*].veinsmobility.accidentCount 0
param *.node[*].veinsmobility.accidentStart 20s
param *.node[*].veinsmobility.accidentDuration 30s

scalar FLScenario.node[5].appl generatedWSMs 0
scalar FLScenario.node[5].appl receivedWSMs 0
scalar FLScenario.node[5].appl generatedBSMs 0
scalar FLScenario.node[5].appl receivedBSMs 0
scalar FLScenario.node[5].appl generatedWSAs 0
scalar FLScenario.node[5].appl receivedWSAs 0
scalar FLScenario.node[5].nic.phy80211p busyTime 0
scalar FLScenario.node[5].nic.mac1609_4 ReceivedUnicastPackets 0
scalar FLScenario.node[5].nic.mac1609_4 ReceivedBroadcasts 0
scalar FLScenario.node[5].nic.mac1609_4 SentPackets 0
scalar FLScenario.node[5].nic.mac1609_4 SentAcknowledgements 0
scalar FLScenario.node[5].nic.mac1609_4 SNIRLostPackets 0
scalar FLScenario.node[5].nic.mac1609_4 RXTXLostPackets 0
scalar FLScenario.node[5].nic.mac1609_4 TotalLostPackets 0
scalar FLScenario.node[5].nic.mac1609_4 DroppedPacketsInMac 0
scalar FLScenario.node[5].nic.mac1609_4 TooLittleTime 0
scalar FLScenario.node[5].nic.mac1609_4 TimesIntoBackoff 0
scalar FLScenario.node[5].nic.mac1609_4 SlotsBackoff 0
scalar FLScenario.node[5].nic.mac1609_4 NumInternalContention 0
scalar FLScenario.node[5].nic.mac1609_4 totalBusyTime 0
scalar FLScenario.node[5].veinsmobility startTime 7
scalar FLScenario.node[5].veinsmobility totalTime 11
scalar FLScenario.node[5].veinsmobility stopTime 19
scalar FLScenario.node[5].veinsmobility minSpeed 2.5767042224528
scalar FLScenario.node[5].veinsmobility maxSpeed 14.371489578706
scalar FLScenario.node[5].veinsmobility totalDistance 99.752460475657
scalar FLScenario.node[5].veinsmobility totalCO2Emission 50.427589790629
scalar FLScenario.node[22].appl generatedWSMs 0
scalar FLScenario.node[22].appl receivedWSMs 0
scalar FLScenario.node[22].appl generatedBSMs 0
scalar FLScenario.node[22].appl receivedBSMs 0
scalar FLScenario.node[22].appl generatedWSAs 0
scalar FLScenario.node[22].appl receivedWSAs 0
scalar FLScenario.node[22].nic.phy80211p busyTime 0
scalar FLScenario.node[22].nic.mac1609_4 ReceivedUnicastPackets 0
scalar FLScenario.node[22].nic.mac1609_4 ReceivedBroadcasts 0
scalar FLScenario.node[22].nic.mac1609_4 SentPackets 0
scalar FLScenario.node[22].nic.mac1609_4 SentAcknowledgements 0
scalar FLScenario.node[22].nic.mac1609_4 SNIRLostPackets 0
scalar FLScenario.node[22].nic.mac1609_4 RXTXLostPackets 0
scalar FLScenario.node[22].nic.mac1609_4 TotalLostPackets 0
scalar FLScenario.node[22].nic.mac1609_4 DroppedPacketsInMac 0
scalar FLScenario.node[22].nic.mac1609_4 TooLittleTime 0
scalar FLScenario.node[22].nic.mac1609_4 TimesIntoBackoff 0
scalar FLScenario.node[22].nic.mac1609_4 SlotsBackoff 0
scalar FLScenario.node[22].nic.mac1609_4 NumInternalContention 0
scalar FLScenario.node[22].nic.mac1609_4 totalBusyTime 0
scalar FLScenario.node[22].veinsmobility startTime 23
scalar FLScenario.node[22].veinsmobility totalTime 11
scalar FLScenario.node[22].veinsmobility stopTime 35
scalar FLScenario.node[22].veinsmobility minSpeed 2.4260216072435
scalar FLScenario.node[22].veinsmobility maxSpeed 12.711954648509
scalar FLScenario.node[22].veinsmobility totalDistance 83.998825813625
scalar FLScenario.node[22].veinsmobility totalCO2Emission 45.20444108548
scalar FLScenario.node[20].appl generatedWSMs 0
scalar FLScenario.node[20].appl receivedWSMs 0
scalar FLScenario.node[20].appl generatedBSMs 0
scalar FLScenario.node[20].appl receivedBSMs 0
scalar FLScenario.node[20].appl generatedWSAs 0
scalar FLScenario.node[20].appl receivedWSAs 0
scalar FLScenario.node[20].nic.phy80211p busyTime 0
scalar FLScenario.node[20].nic.mac1609_4 ReceivedUnicastPackets 0
scalar FLScenario.node[20].nic.mac1609_4 ReceivedBroadcasts 0
scalar FLScenario.node[20].nic.mac1609_4 SentPackets 0
scalar FLScenario.node[20].nic.mac1609_4 SentAcknowledgements 0
scalar FLScenario.node[20].nic.mac1609_4 SNIRLostPackets 0
scalar FLScenario.node[20].nic.mac1609_4 RXTXLostPackets 0
scalar FLScenario.node[20].nic.mac1609_4 TotalLostPackets 0
scalar FLScenario.node[20].nic.mac1609_4 DroppedPacketsInMac 0
scalar FLScenario.node[20].nic.mac1609_4 TooLittleTime 0
scalar FLScenario.node[20].nic.mac1609_4 TimesIntoBackoff 0
scalar FLScenario.node[20].nic.mac1609_4 SlotsBackoff 0
scalar FLScenario.node[20].nic.mac1609_4 NumInternalContention 0
scalar FLScenario.node[20].nic.mac1609_4 totalBusyTime 0
scalar FLScenario.node[20].veinsmobility startTime 21
scalar FLScenario.node[20].veinsmobility totalTime 14
scalar FLScenario.node[20].veinsmobility stopTime 36
scalar FLScenario.node[20].veinsmobility minSpeed 2.5498698164476
scalar FLScenario.node[20].veinsmobility maxSpeed 13.018911708384
scalar FLScenario.node[20].veinsmobility totalDistance 145.94730725726
scalar FLScenario.node[20].veinsmobility totalCO2Emission 46.44775392714
scalar FLScenario.node[14].appl generatedWSMs 0
scalar FLScenario.node[14].appl receivedWSMs 0
scalar FLScenario.node[14].appl generatedBSMs 0
scalar FLScenario.node[14].appl receivedBSMs 0
scalar FLScenario.node[14].appl generatedWSAs 0
scalar FLScenario.node[14].appl receivedWSAs 0
scalar FLScenario.node[14].nic.phy80211p busyTime 0
scalar FLScenario.node[14].nic.mac1609_4 ReceivedUnicastPackets 0
scalar FLScenario.node[14].nic.mac1609_4 ReceivedBroadcasts 0
scalar FLScenario.node[14].nic.mac1609_4 SentPackets 0
scalar FLScenario.node[14].nic.mac1609_4 SentAcknowledgements 0
scalar FLScenario.node[14].nic.mac1609_4 SNIRLostPackets 0
scalar FLScenario.node[14].nic.mac1609_4 RXTXLostPackets 0
scalar FLScenario.node[14].nic.mac1609_4 TotalLostPackets 0
scalar FLScenario.node[14].nic.mac1609_4 DroppedPacketsInMac 0
scalar FLScenario.node[14].nic.mac1609_4 TooLittleTime 0
scalar FLScenario.node[14].nic.mac1609_4 TimesIntoBackoff 0
scalar FLScenario.node[14].nic.mac1609_4 SlotsBackoff 0
scalar FLScenario.node[14].nic.mac1609_4 NumInternalContention 0
scalar FLScenario.node[14].nic.mac1609_4 totalBusyTime 0
scalar FLScenario.node[14].veinsmobility startTime 15
scalar FLScenario.node[14].veinsmobility totalTime 36
scalar FLScenario.node[14].veinsmobility stopTime 52
scalar FLScenario.node[14].veinsmobility minSpeed 2.5772626519203
scalar FLScenario.node[14].veinsmobility maxSpeed 14.025305036876
scalar FLScenario.node[14].veinsmobility totalDistance 392.98541755054
scalar FLScenario.node[14].veinsmobility totalCO2Emission 121.150018165
scalar FLScenario.node[21].appl generatedWSMs 0
scalar FLScenario.node[21].appl receivedWSMs 0
scalar FLScenario.node[21].appl generatedBSMs 0
scalar FLScenario.node[21].appl receivedBSMs 0
scalar FLScenario.node[21].appl generatedWSAs 0
scalar FLScenario.node[21].appl receivedWSAs 0
scalar FLScenario.node[21].nic.phy80211p busyTime 0
scalar FLScenario.node[21].nic.mac1609_4 ReceivedUnicastPackets 0
scalar FLScenario.node[21].nic.mac1609_4 ReceivedBroadcasts 0
scalar FLScenario.node[21].nic.mac1609_4 SentPackets 0
scalar FLScenario.node[21].nic.mac1609_4 SentAcknowledgements 0
scalar FLScenario.node[21].nic.mac1609_4 SNIRLostPackets 0
scalar FLScenario.node[21].nic.mac1609_4 RXTXLostPackets 0
scalar FLScenario.node[21].nic.mac1609_4 TotalLostPackets 0
scalar FLScenario.node[21].nic.mac1609_4 DroppedPacketsInMac 0
scalar FLScenario.node[21].nic.mac1609_4 TooLittleTime 0
scalar FLScenario.node[21].nic.mac1609_4 TimesIntoBackoff 0
scalar FLScenario.node[21].nic.mac1609_4 SlotsBackoff 0
scalar FLScenario.node[21].nic.mac1609_4 NumInternalContention 0
scalar FLScenario.node[21].nic.mac1609_4 totalBusyTime 0
scalar FLScenario.node[21].veinsmobility startTime 22
scalar FLScenario.node[21].veinsmobility totalTime 29
scalar FLScenario.node[21].veinsmobility stopTime 52
scalar FLScenario.node[21].veinsmobility minSpeed 1.8630499339197
scalar FLScenario.node[21].veinsmobility maxSpeed 13.27382763696
scalar FLScenario.node[21].veinsmobility totalDistance 292.05371206623
scalar FLScenario.node[21].veinsmobility totalCO2Emission 87.025855239224
scalar FLScenario.node[15].appl generatedWSMs 0
scalar FLScenario.node[15].appl receivedWSMs 0
scalar FLScenario.node[15].appl generatedBSMs 0
scalar FLScenario.node[15].appl receivedBSMs 0
scalar FLScenario.node[15].appl generatedWSAs 0
scalar FLScenario.node[15].appl receivedWSAs 0
scalar FLScenario.node[15].nic.phy80211p busyTime 0
scalar FLScenario.node[15].nic.mac1609_4 ReceivedUnicastPackets 0
scalar FLScenario.node[15].nic.mac1609_4 ReceivedBroadcasts 0
scalar FLScenario.node[15].nic.mac1609_4 SentPackets 0
scalar FLScenario.node[15].nic.mac1609_4 SentAcknowledgements 0
scalar FLScenario.node[15].nic.mac1609_4 SNIRLostPackets 0
scalar FLScenario.node[15].nic.mac1609_4 RXTXLostPackets 0
scalar FLScenario.node[15].nic.mac1609_4 TotalLostPackets 0
scalar FLScenario.node[15].nic.mac1609_4 DroppedPacketsInMac 0
scalar FLScenario.node[15].nic.mac1609_4 TooLittleTime 0
scalar FLScenario.node[15].nic.mac1609_4 TimesIntoBackoff 0
scalar FLScenario.node[15].nic.mac1609_4 SlotsBackoff 0
scalar FLScenario.node[15].nic.mac1609_4 NumInternalContention 0
scalar FLScenario.node[15].nic.mac1609_4 totalBusyTime 0
scalar FLScenario.node[15].veinsmobility startTime 16
scalar FLScenario.node[15].veinsmobility totalTime 39
scalar FLScenario.node[15].veinsmobility stopTime 56
scalar FLScenario.node[15].veinsmobility minSpeed 1.3620386655908
scalar FLScenario.node[15].veinsmobility maxSpeed 14.371447832022
scalar FLScenario.node[15].veinsmobility totalDistance 462.19713305628
scalar FLScenario.node[15].veinsmobility totalCO2Emission 123.56059777949
scalar FLScenario.node[29].appl generatedWSMs 0
scalar FLScenario.node[29].appl receivedWSMs 0
scalar FLScenario.node[29].appl generatedBSMs 0
scalar FLScenario.node[29].appl receivedBSMs 0
scalar FLScenario.node[29].appl generatedWSAs 0
scalar FLScenario.node[29].appl receivedWSAs 0
scalar FLScenario.node[29].nic.phy80211p busyTime 0
scalar FLScenario.node[29].nic.mac1609_4 ReceivedUnicastPackets 0
scalar FLScenario.node[29].nic.mac1609_4 ReceivedBroadcasts 0
scalar FLScenario.node[29].nic.mac1609_4 SentPackets 0
scalar FLScenario.node[29].nic.mac1609_4 SentAcknowledgements 0
scalar FLScenario.node[29].nic.mac1609_4 SNIRLostPackets 0
scalar FLScenario.node[29].nic.mac1609_4 RXTXLostPackets 0
scalar FLScenario.node[29].nic.mac1609_4 TotalLostPackets 0
scalar FLScenario.node[29].nic.mac1609_4 DroppedPacketsInMac 0
scalar FLScenario.node[29].nic.mac1609_4 TooLittleTime 0
scalar FLScenario.node[29].nic.mac1609_4 TimesIntoBackoff 0
scalar FLScenario.node[29].nic.mac1609_4 SlotsBackoff 0
scalar FLScenario.node[29].nic.mac1609_4 NumInternalContention 0
scalar FLScenario.node[29].nic.mac1609_4 totalBusyTime 0
scalar FLScenario.node[29].veinsmobility startTime 32
scalar FLScenario.node[29].veinsmobility totalTime 27
scalar FLScenario.node[29].veinsmobility stopTime 60
scalar FLScenario.node[29].veinsmobility minSpeed 0
scalar FLScenario.node[29].veinsmobility maxSpeed 12.539744871432
scalar FLScenario.node[29].veinsmobility totalDistance 101.24322851712
scalar FLScenario.node[29].veinsmobility totalCO2Emission 67.53385893861
scalar FLScenario.node[13].appl generatedWSMs 0
scalar FLScenario.node[13].appl receivedWSMs 0
scalar FLScenario.node[13].appl generatedBSMs 0
scalar FLScenario.node[13].appl receivedBSMs 0
scalar FLScenario.node[13].appl generatedWSAs 0
scalar FLScenario.node[13].appl receivedWSAs 0
scalar FLScenario.node[13].nic.phy80211p busyTime 0
scalar FLScenario.node[13].nic.mac1609_4 ReceivedUnicastPackets 0
scalar FLScenario.node[13].nic.mac1609_4 ReceivedBroadcasts 0
scalar FLScenario.node[13].nic.mac1609_4 SentPackets 0
scalar FLScenario.node[13].nic.mac1609_4 SentAcknowledgements 0
scalar FLScenario.node[13].nic.mac1609_4 SNIRLostPackets 0
scalar FLScenario.node[13].nic.mac1609_4 RXTXLostPackets 0
scalar FLScenario.node[13].nic.mac1609_4 TotalLostPackets 0
scalar FLScenario.node[13].nic.mac1609_4 DroppedPacketsInMac 0
scalar FLScenario.node[13].nic.mac1609_4 TooLittleTime 0
scalar FLScenario.node[13].nic.mac1609_4 TimesIntoBackoff 0
scalar FLScenario.node[13].nic.mac1609_4 SlotsBackoff 0
scalar FLScenario.node[13].nic.mac1609_4 NumInternalContention 0
scalar FLScenario.node[13].nic.mac1609_4 totalBusyTime 0
scalar FLScenario.node[13].veinsmobility startTime 14
scalar FLScenario.node[13].veinsmobility totalTime 48
scalar FLScenario.node[13].veinsmobility stopTime 63
scalar FLScenario.node[13].veinsmobility minSpeed 1.528189688758
scalar FLScenario.node[13].veinsmobility maxSpeed 13.624493262696
scalar FLScenario.node[13].veinsmobility totalDistance 507.92944271993
scalar FLScenario.node[13].veinsmobility totalCO2Emission 146.42714980767
scalar FLScenario.node[28].appl generatedWSMs 0
scalar FLScenario.node[28].appl receivedWSMs 0
scalar FLScenario.node[28].appl generatedBSMs 0
scalar FLScenario.node[28].appl receivedBSMs 0
scalar FLScenario.node[28].appl generatedWSAs 0
scalar FLScenario.node[28].appl receivedWSAs 0
scalar FLScenario.node[28].nic.phy80211p busyTime 0
scalar FLScenario.node[28].nic.mac1609_4 ReceivedUnicastPackets 0
scalar FLScenario.node[28].nic.mac1609_4 ReceivedBroadcasts 0
scalar FLScenario.node[28].nic.mac1609_4 SentPackets 0
scalar FLScenario.node[28].nic.mac1609_4 SentAcknowledgements 0
scalar FLScenario.node[28].nic.mac1609_4 SNIRLostPackets 0
scalar FLScenario.node[28].nic.mac1609_4 RXTXLostPackets 0
scalar FLScenario.node[28].nic.mac1609_4 TotalLostPackets 0
scalar FLScenario.node[28].nic.mac1609_4 DroppedPacketsInMac 0
scalar FLScenario.node[28].nic.mac1609_4 TooLittleTime 0
scalar FLScenario.node[28].nic.mac1609_4 TimesIntoBackoff 0
scalar FLScenario.node[28].nic.mac1609_4 SlotsBackoff 0
scalar FLScenario.node[28].nic.mac1609_4 NumInternalContention 0
scalar FLScenario.node[28].nic.mac1609_4 totalBusyTime 0
scalar FLScenario.node[28].veinsmobility startTime 30
scalar FLScenario.node[28].veinsmobility totalTime 39
scalar FLScenario.node[28].veinsmobility stopTime 70
scalar FLScenario.node[28].veinsmobility minSpeed 3.4947785269532
scalar FLScenario.node[28].veinsmobility maxSpeed 13.678720752265
scalar FLScenario.node[28].veinsmobility totalDistance 387.76095870175
scalar FLScenario.node[28].veinsmobility totalCO2Emission 171.69471193887
scalar FLScenario.node[46].appl generatedWSMs 0
scalar FLScenario.node[46].appl receivedWSMs 0
scalar FLScenario.node[46].appl generatedBSMs 0
scalar FLScenario.node[46].appl receivedBSMs 0
scalar FLScenario.node[46].appl generatedWSAs 0
scalar FLScenario.node[46].appl receivedWSAs 0
scalar FLScenario.node[46].nic.phy80211p busyTime 0
scalar FLScenario.node[46].nic.mac1609_4 ReceivedUnicastPackets 0
scalar FLScenario.node[46].nic.mac1609_4 ReceivedBroadcasts 0
scalar FLScenario.node[46].nic.mac1609_4 SentPackets 0
scalar FLScenario.node[46].nic.mac1609_4 SentAcknowledgements 0
scalar FLScenario.node[46].nic.mac1609_4 SNIRLostPackets 0
scalar FLScenario.node[46].nic.mac1609_4 RXTXLostPackets 0
scalar FLScenario.node[46].nic.mac1609_4 TotalLostPackets 0
scalar FLScenario.node[46].nic.mac1609_4 DroppedPacketsInMac 0
scalar FLScenario.node[46].nic.mac1609_4 TooLittleTime 0
scalar FLScenario.node[46].nic.mac1609_4 TimesIntoBackoff 0
scalar FLScenario.node[46].nic.mac1609_4 SlotsBackoff 0
scalar FLScenario.node[46].nic.mac1609_4 NumInternalContention 0
scalar FLScenario.node[46].nic.mac1609_4 totalBusyTime 0
scalar FLScenario.node[46].veinsmobility startTime 47
scalar FLScenario.node[46].veinsmobility totalTime 26
scalar FLScenario.node[46].veinsmobility stopTime 74
scalar FLScenario.node[46].veinsmobility minSpeed 1.8642573473975
scalar FLScenario.node[46].veinsmobility maxSpeed 12.327354765363
scalar FLScenario.node[46].veinsmobility totalDistance 194.32044579578
scalar FLScenario.node[46].veinsmobility totalCO2Emission 90.319696427688
scalar FLScenario.node[4].appl generatedWSMs 0
scalar FLScenario.node[4].appl receivedWSMs 0
scalar FLScenario.node[4].appl generatedBSMs 0
scalar FLScenario.node[4].appl receivedBSMs 0
scalar FLScenario.node[4].appl generatedWSAs 0
scalar FLScenario.node[4].appl receivedWSAs 0
scalar FLScenario.node[4].nic.phy80211p busyTime 0
scalar FLScenario.node[4].nic.mac1609_4 ReceivedUnicastPackets 0
scalar FLScenario.node[4].nic.mac1609_4 ReceivedBroadcasts 0
scalar FLScenario.node[4].nic.mac1609_4 SentPackets 0
scalar FLScenario.node[4].nic.mac1609_4 SentAcknowledgements 0
scalar FLScenario.node[4].nic.mac1609_4 SNIRLostPackets 0
scalar FLScenario.node[4].nic.mac1609_4 RXTXLostPackets 0
scalar FLScenario.node[4].nic.mac1609_4 TotalLostPackets 0
scalar FLScenario.node[4].nic.mac1609_4 DroppedPacketsInMac 0
scalar FLScenario.node[4].nic.mac1609_4 TooLittleTime 0
scalar FLScenario.node[4].nic.mac1609_4 TimesIntoBackoff 0
scalar FLScenario.node[4].nic.mac1609_4 SlotsBackoff 0
scalar FLScenario.node[4].nic.mac1609_4 NumInternalContention 0
scalar FLScenario.node[4].nic.mac1609_4 totalBusyTime 0
scalar FLScenario.node[4].veinsmobility startTime 5
scalar FLScenario.node[4].veinsmobility totalTime 69
scalar FLScenario.node[4].veinsmobility stopTime 75
scalar FLScenario.node[4].veinsmobility minSpeed 4.2232730071041
scalar FLScenario.node[4].veinsmobility maxSpeed 12.207531823358
scalar FLScenario.node[4].veinsmobility totalDistance 718.63532080754
scalar FLScenario.node[4].veinsmobility totalCO2Emission 229.31132440774
scalar FLScenario.node[11].appl generatedWSMs 0
scalar FLScenario.node[11].appl receivedWSMs 0
scalar FLScenario.node[11].appl generatedBSMs 0
scalar FLScenario.node[11].appl receivedBSMs 0
scalar FLScenario.node[11].appl generatedWSAs 0
scalar FLScenario.node[11].appl receivedWSAs 0
scalar FLScenario.node[11].nic.phy80211p busyTime 0
scalar FLScenario.node[11].nic.mac1609_4 ReceivedUnicastPackets 0
scalar FLScenario.node[11].nic.mac1609_4 ReceivedBroadcasts 0
scalar FLScenario.node[11].nic.mac1609_4 SentPackets 0
scalar FLScenario.node[11].nic.mac1609_4 SentAcknowledgements 0
scalar FLScenario.node[11].nic.mac1609_4 SNIRLostPackets 0
scalar FLScenario.node[11].nic.mac1609_4 RXTXLostPackets 0
scalar FLScenario.node[11].nic.mac1609_4 TotalLostPackets 0
scalar FLScenario.node[11].nic.mac1609_4 DroppedPacketsInMac 0
scalar FLScenario.node[11].nic.mac1609_4 TooLittleTime 0
scalar FLScenario.node[11].nic.mac1609_4 TimesIntoBackoff 0
scalar FLScenario.node[11].nic.mac1609_4 SlotsBackoff 0
scalar FLScenario.node[11].nic.mac1609_4 NumInternalContention 0
scalar FLScenario.node[11].nic.mac1609_4 totalBusyTime 0
scalar FLScenario.node[11].veinsmobility startTime 12
scalar FLScenario.node[11].veinsmobility totalTime 62
scalar FLScenario.node[11].veinsmobility stopTime 75
scalar FLScenario.node[11].veinsmobility minSpeed 0
scalar FLScenario.node[11].veinsmobility maxSpeed 13.028552073517
scalar FLScenario.node[11].veinsmobility totalDistance 476.27599258406
scalar FLScenario.node[11].veinsmobility totalCO2Emission 160.22780010444
scalar FLScenario.node[8].appl generatedWSMs 0
scalar FLScenario.node[8].appl receivedWSMs 0
scalar FLScenario.node[8].appl generatedBSMs 0
scalar FLScenario.node[8].appl receivedBSMs 0
scalar FLScenario.node[8].appl generatedWSAs 0
scalar FLScenario.node[8].appl receivedWSAs 0
scalar FLScenario.node[8].nic.phy80211p busyTime 0
scalar FLScenario.node[8].nic.mac1609_4 ReceivedUnicastPackets 0
scalar FLScenario.node[8].nic.mac1609_4 ReceivedBroadcasts 0
scalar FLScenario.node[8].nic.mac1609_4 SentPackets 0
scalar FLScenario.node[8].nic.mac1609_4 SentAcknowledgements 0
scalar FLScenario.node[8].nic.mac1609_4 SNIRLostPackets 0
scalar FLScenario.node[8].nic.mac1609_4 RXTXLostPackets 0
scalar FLScenario.node[8].nic.mac1609_4 TotalLostPackets 0
scalar FLScenario.node[8].nic.mac1609_4 DroppedPacketsInMac 0
scalar FLScenario.node[8].nic.mac1609_4 TooLittleTime 0
scalar FLScenario.node[8].nic.mac1609_4 TimesIntoBackoff 0
scalar FLScenario.node[8].nic.mac1609_4 SlotsBackoff 0
scalar FLScenario.node[8].nic.mac1609_4 NumInternalContention 0
scalar FLScenario.node[8].nic.mac1609_4 totalBusyTime 0
scalar FLScenario.node[8].veinsmobility startTime 9
scalar FLScenario.node[8].veinsmobility totalTime 67
scalar FLScenario.node[8].veinsmobility stopTime 77
scalar FLScenario.node[8].veinsmobility minSpeed 2.450429067295
scalar FLScenario.node[8].veinsmobility maxSpeed 14.638788745623
scalar FLScenario.node[8].veinsmobility totalDistance 727.4265042242
scalar FLScenario.node[8].veinsmobility totalCO2Emission 190.75251422778
scalar FLScenario.node[43].appl generatedWSMs 0
scalar FLScenario.node[43].appl receivedWSMs 0
scalar FLScenario.node[43].appl generatedBSMs 0
scalar FLScenario.node[43].appl receivedBSMs 0
scalar FLScenario.node[43].appl generatedWSAs 0
scalar FLScenario.node[43].appl receivedWSAs 0
scalar FLScenario.node[43].nic.phy80211p busyTime 0
scalar FLScenario.node[43].nic.mac1609_4 ReceivedUnicastPackets 0
scalar FLScenario.node[43].nic.mac1609_4 ReceivedBroadcasts 0
scalar FLScenario.node[43].nic.mac1609_4 SentPackets 0
scalar FLScenario.node[43].nic.mac1609_4 SentAcknowledgements 0
scalar FLScenario.node[43].nic.mac1609_4 SNIRLostPackets 0
scalar FLScenario.node[43].nic.mac1609_4 RXTXLostPackets 0
scalar FLScenario.node[43].nic.mac1609_4 TotalLostPackets 0
scalar FLScenario.node[43].nic.mac1609_4 DroppedPacketsInMac 0
scalar FLScenario.node[43].nic.mac1609_4 TooLittleTime 0
scalar FLScenario.node[43].nic.mac1609_4 TimesIntoBackoff 0
scalar FLScenario.node[43].nic.mac1609_4 SlotsBackoff 0
scalar FLScenario.node[43].nic.mac1609_4 NumInternalContention 0
scalar FLScenario.node[43].nic.mac1609_4 totalBusyTime 0
scalar FLScenario.node[43].veinsmobility startTime 44
scalar FLScenario.node[43].veinsmobility totalTime 32
scalar FLScenario.node[43].veinsmobility stopTime 77
scalar FLScenario.node[43].veinsmobility minSpeed 0.0046486483584683
scalar FLScenario.node[43].veinsmobility maxSpeed 10.639978769955
scalar FLScenario.node[43].veinsmobility totalDistance 172.72916803942
scalar FLScenario.node[43].veinsmobility totalCO2Emission 75.329855672591
scalar FLScenario.node[26].appl generatedWSMs 0
scalar FLScenario.node[26].appl receivedWSMs 0
scalar FLScenario.node[26].appl generatedBSMs 0
scalar FLScenario.node[26].appl receivedBSMs 0
scalar FLScenario.node[26].appl generatedWSAs 0
scalar FLScenario.node[26].appl receivedWSAs 0
scalar FLScenario.node[26].nic.phy80211p busyTime 0
scalar FLScenario.node[26].nic.mac1609_4 ReceivedUnicastPackets 0
scalar FLScenario.node[26].nic.mac1609_4 ReceivedBroadcasts 0
scalar FLScenario.node[26].nic.mac1609_4 SentPackets 0
scalar FLScenario.node[26].nic.mac1609_4 SentAcknowledgements 0
scalar FLScenario.node[26].nic.mac1609_4 SNIRLostPackets 0
scalar FLScenario.node[26].nic.mac1609_4 RXTXLostPackets 0
scalar FLScenario.node[26].nic.mac1609_4 TotalLostPackets 0
scalar FLScenario.node[26].nic.mac1609_4 DroppedPacketsInMac 0
scalar FLScenario.node[26].nic.mac1609_4 TooLittleTime 0
scalar FLScenario.node[26].nic.mac1609_4 TimesIntoBackoff 0
scalar FLScenario.node[26].nic.mac1609_4 SlotsBackoff 0
scalar FLScenario.node[26].nic.mac1609_4 NumInternalContention 0
scalar FLScenario.node[26].nic.mac1609_4 totalBusyTime 0
scalar FLScenario.node[26].veinsmobility startTime 27
scalar FLScenario.node[26].veinsmobility totalTime 50
scalar FLScenario.node[26].veinsmobility stopTime 78
scalar FLScenario.node[26].veinsmobility minSpeed 2.5577558084624
scalar FLScenario.node[26].veinsmobility maxSpeed 13.016949306231
scalar FLScenario.node[26].veinsmobility totalDistance 518.43881784698
scalar FLScenario.node[26].veinsmobility totalCO2Emission 149.79475623214
scalar FLScenario.node[12].appl generatedWSMs 0
scalar FLScenario.node[12].appl receivedWSMs 0
scalar FLScenario.node[12].appl generatedBSMs 0
scalar FLScenario.node[12].appl receivedBSMs 0
scalar FLScenario.node[12].appl generatedWSAs 0
scalar FLScenario.node[12].appl receivedWSAs 0
scalar FLScenario.node[12].nic.phy80211p busyTime 0
scalar FLScenario.node[12].nic.mac1609_4 ReceivedUnicastPackets 0
scalar FLScenario.node[12].nic.mac1609_4 ReceivedBroadcasts 0
scalar FLScenario.node[12].nic.mac1609_4 SentPackets 0
scalar FLScenario.node[12].nic.mac1609_4 SentAcknowledgements 0
scalar FLScenario.node[12].nic.mac1609_4 SNIRLostPackets 0
scalar FLScenario.node[12].nic.mac1609_4 RXTXLostPackets 0
scalar FLScenario.node[12].nic.mac1609_4 TotalLostPackets 0
scalar FLScenario.node[12].nic.mac1609_4 DroppedPacketsInMac 0
scalar FLScenario.node[12].nic.mac1609_4 TooLittleTime 0
scalar FLScenario.node[12].nic.mac1609_4 TimesIntoBackoff 0
scalar FLScenario.node[12].nic.mac1609_4 SlotsBackoff 0
scalar FLScenario.node[12].nic.mac1609_4 NumInternalContention 0
scalar FLScenario.node[12].nic.mac1609_4 totalBusyTime 0
scalar FLScenario.node[12].veinsmobility startTime 13
scalar FLScenario.node[12].veinsmobility totalTime 69
scalar FLScenario.node[12].veinsmobility stopTime 83
scalar FLScenario.node[12].veinsmobility minSpeed 1.381591434055
scalar FLScenario.node[12].veinsmobility maxSpeed 12.941371238907
scalar FLScenario.node[12].veinsmobility totalDistance 737.10325766756
scalar FLScenario.node[12].veinsmobility totalCO2Emission 184.03949475923
scalar FLScenario.node[24].appl generatedWSMs 0
scalar FLScenario.node[24].appl receivedWSMs 0
scalar FLScenario.node[24].appl generatedBSMs 0
scalar FLScenario.node[24].appl receivedBSMs 0
scalar FLScenario.node[24].appl generatedWSAs 0
scalar FLScenario.node[24].appl receivedWSAs 0
scalar FLScenario.node[24].nic.phy80211p busyTime 0
scalar FLScenario.node[24].nic.mac1609_4 ReceivedUnicastPackets 0
scalar FLScenario.node[24].nic.mac1609_4 ReceivedBroadcasts 0
scalar FLScenario.node[24].nic.mac1609_4 SentPackets 0
scalar FLScenario.node[24].nic.mac1609_4 SentAcknowledgements 0
scalar FLScenario.node[24].nic.mac1609_4 SNIRLostPackets 0
scalar FLScenario.node[24].nic.mac1609_4 RXTXLostPackets 0
scalar FLScenario.node[24].nic.mac1609_4 TotalLostPackets 0
scalar FLScenario.node[24].nic.mac1609_4 DroppedPacketsInMac 0
scalar FLScenario.node[24].nic.mac1609_4 TooLittleTime 0
scalar FLScenario.node[24].nic.mac1609_4 TimesIntoBackoff 0
scalar FLScenario.node[24].nic.mac1609_4 SlotsBackoff 0
scalar FLScenario.node[24].nic.mac1609_4 NumInternalContention 0
scalar FLScenario.node[24].nic.mac1609_4 totalBusyTime 0
scalar FLScenario.node[24].veinsmobility startTime 26
scalar FLScenario.node[24].veinsmobility totalTime 62
scalar FLScenario.node[24].veinsmobility stopTime 89
scalar FLScenario.node[24].veinsmobility minSpeed 0.0045950431681164
scalar FLScenario.node[24].veinsmobility maxSpeed 13.892835276124
scalar FLScenario.node[24].veinsmobility totalDistance 530.21858941164
scalar FLScenario.node[24].veinsmobility totalCO2Emission 228.7819384722
scalar FLScenario.node[39].appl generatedWSMs 0
scalar FLScenario.node[39].appl receivedWSMs 0
scalar FLScenario.node[39].appl generatedBSMs 0
scalar FLScenario.node[39].appl receivedBSMs 0
scalar FLScenario.node[39].appl generatedWSAs 0
scalar FLScenario.node[39].appl receivedWSAs 0
scalar FLScenario.node[39].nic.phy80211p busyTime 0
scalar FLScenario.node[39].nic.mac1609_4 ReceivedUnicastPackets 0
scalar FLScenario.node[39].nic.mac1609_4 ReceivedBroadcasts 0
scalar FLScenario.node[39].nic.mac1609_4 SentPackets 0
scalar FLScenario.node[39].nic.mac1609_4 SentAcknowledgements 0
scalar FLScenario.node[39].nic.mac1609_4 SNIRLostPackets 0
scalar FLScenario.node[39].nic.mac1609_4 RXTXLostPackets 0
scalar FLScenario.node[39].nic.mac1609_4 TotalLostPackets 0
scalar FLScenario.node[39].nic.mac1609_4 DroppedPacketsInMac 0
scalar FLScenario.node[39].nic.mac1609_4 TooLittleTime 0
scalar FLScenario.node[39].nic.mac1609_4 TimesIntoBackoff 0
scalar FLScenario.node[39].nic.mac1609_4 SlotsBackoff 0
scalar FLScenario.node[39].nic.mac1609_4 NumInternalContention 0
scalar FLScenario.node[39].nic.mac1609_4 totalBusyTime 0
scalar FLScenario.node[39].veinsmobility startTime 41
scalar FLScenario.node[39].veinsmobility totalTime 47
scalar FLScenario.node[39].veinsmobility stopTime 89
scalar FLScenario.node[39].veinsmobility minSpeed 1.6465765757486
scalar FLScenario.node[39].veinsmobility maxSpeed 12.234785237238
scalar FLScenario.node[39].veinsmobility totalDistance 440.34436617309
scalar FLScenario.node[39].veinsmobility totalCO2Emission 134.23453367026
scalar FLScenario.node[36].appl generatedWSMs 0
scalar FLScenario.node[36].appl receivedWSMs 0
scalar FLScenario.node[36].appl generatedBSMs 0
scalar FLScenario.node[36].appl receivedBSMs 0
scalar FLScenario.node[36].appl generatedWSAs 0
scalar FLScenario.node[36].appl receivedWSAs 0
scalar FLScenario.node[36].nic.phy80211p busyTime 0
scalar FLScenario.node[36].nic.mac1609_4 ReceivedUnicastPackets 0
scalar FLScenario.node[36].nic.mac1609_4 ReceivedBroadcasts 0
scalar FLScenario.node[36].nic.mac1609_4 SentPackets 0
scalar FLScenario.node[36].nic.mac1609_4 SentAcknowledgements 0
scalar FLScenario.node[36].nic.mac1609_4 SNIRLostPackets 0
scalar FLScenario.node[36].nic.mac1609_4 RXTXLostPackets 0
scalar FLScenario.node[36].nic.mac1609_4 TotalLostPackets 0
scalar FLScenario.node[36].nic.mac1609_4 DroppedPacketsInMac 0
scalar FLScenario.node[36].nic.mac1609_4 TooLittleTime 0
scalar FLScenario.node[36].nic.mac1609_4 TimesIntoBackoff 0
scalar FLScenario.node[36].nic.mac1609_4 SlotsBackoff 0
scalar FLScenario.node[36].nic.mac1609_4 NumInternalContention 0
scalar FLScenario.node[36].nic.mac1609_4 totalBusyTime 0
scalar FLScenario.node[36].veinsmobility startTime 38
scalar FLScenario.node[36].veinsmobility totalTime 53
scalar FLScenario.node[36].veinsmobility stopTime 92
scalar FLScenario.node[36].veinsmobility minSpeed 1.9095390212955
scalar FLScenario.node[36].veinsmobility maxSpeed 13.567004184221
scalar FLScenario.node[36].veinsmobility totalDistance 539.04316034829
scalar FLScenario.node[36].veinsmobility totalCO2Emission 150.57657629818
scalar FLScenario.node[6].appl generatedWSMs 0
scalar FLScenario.node[6].appl receivedWSMs 0
scalar FLScenario.node[6].appl generatedBSMs 0
scalar FLScenario.node[6].appl receivedBSMs 0
scalar FLScenario.node[6].appl generatedWSAs 0
scalar FLScenario.node[6].appl receivedWSAs 0
scalar FLScenario.node[6].nic.phy80211p busyTime 0
scalar FLScenario.node[6].nic.mac1609_4 ReceivedUnicastPackets 0
scalar FLScenario.node[6].nic.mac1609_4 ReceivedBroadcasts 0
scalar FLScenario.node[6].nic.mac1609_4 SentPackets 0
scalar FLScenario.node[6].nic.mac1609_4 SentAcknowledgements 0
scalar FLScenario.node[6].nic.mac1609_4 SNIRLostPackets 0
scalar FLScenario.node[6].nic.mac1609_4 RXTXLostPackets 0
scalar FLScenario.node[6].nic.mac1609_4 TotalLostPackets 0
scalar FLScenario.node[6].nic.mac1609_4 DroppedPacketsInMac 0
scalar FLScenario.node[6].nic.mac1609_4 TooLittleTime 0
scalar FLScenario.node[6].nic.mac1609_4 TimesIntoBackoff 0
scalar FLScenario.node[6].nic.mac1609_4 SlotsBackoff 0
scalar FLScenario.node[6].nic.mac1609_4 NumInternalContention 0
scalar FLScenario.node[6].nic.mac1609_4 totalBusyTime 0
scalar FLScenario.node[6].veinsmobility startTime 7
scalar FLScenario.node[6].veinsmobility totalTime 86
scalar FLScenario.node[6].veinsmobility stopTime 94
scalar FLScenario.node[6].veinsmobility minSpeed 2.5865135943983
scalar FLScenario.node[6].veinsmobility maxSpeed 13.115116552483
scalar FLScenario.node[6].veinsmobility totalDistance 909.34491798459
scalar FLScenario.node[6].veinsmobility totalCO2Emission 249.43477069674
scalar FLScenario.node[0].appl generatedWSMs 0
scalar FLScenario.node[0].appl receivedWSMs 0
scalar FLScenario.node[0].appl generatedBSMs 0
scalar FLScenario.node[0].appl receivedBSMs 0
scalar FLScenario.node[0].appl generatedWSAs 0
scalar FLScenario.node[0].appl receivedWSAs 0
scalar FLScenario.node[0].nic.phy80211p busyTime 0
scalar FLScenario.node[0].nic.mac1609_4 ReceivedUnicastPackets 0
scalar FLScenario.node[0].nic.mac1609_4 ReceivedBroadcasts 0
scalar FLScenario.node[0].nic.mac1609_4 SentPackets 0
scalar FLScenario.node[0].nic.mac1609_4 SentAcknowledgements 0
scalar FLScenario.node[0].nic.mac1609_4 SNIRLostPackets 0
scalar FLScenario.node[0].nic.mac1609_4 RXTXLostPackets 0
scalar FLScenario.node[0].nic.mac1609_4 TotalLostPackets 0
scalar FLScenario.node[0].nic.mac1609_4 DroppedPacketsInMac 0
scalar FLScenario.node[0].nic.mac1609_4 TooLittleTime 0
scalar FLScenario.node[0].nic.mac1609_4 TimesIntoBackoff 0
scalar FLScenario.node[0].nic.mac1609_4 SlotsBackoff 0
scalar FLScenario.node[0].nic.mac1609_4 NumInternalContention 0
scalar FLScenario.node[0].nic.mac1609_4 totalBusyTime 0
scalar FLScenario.node[0].veinsmobility startTime 1
scalar FLScenario.node[0].veinsmobility totalTime 93
scalar FLScenario.node[0].veinsmobility stopTime 95
scalar FLScenario.node[0].veinsmobility minSpeed 0
scalar FLScenario.node[0].veinsmobility maxSpeed 5.543115765886
scalar FLScenario.node[0].veinsmobility totalDistance 412.94422707877
scalar FLScenario.node[0].veinsmobility totalCO2Emission 129.57470188
scalar FLScenario.node[18].appl generatedWSMs 0
scalar FLScenario.node[18].appl receivedWSMs 0
scalar FLScenario.node[18].appl generatedBSMs 0
scalar FLScenario.node[18].appl receivedBSMs 0
scalar FLScenario.node[18].appl generatedWSAs 0
scalar FLScenario.node[18].appl receivedWSAs 0
scalar FLScenario.node[18].nic.phy80211p busyTime 0
scalar FLScenario.node[18].nic.mac1609_4 ReceivedUnicastPackets 0
scalar FLScenario.node[18].nic.mac1609_4 ReceivedBroadcasts 0
scalar FLScenario.node[18].nic.mac1609_4 SentPackets 0
scalar FLScenario.node[18].nic.mac1609_4 SentAcknowledgements 0
scalar FLScenario.node[18].nic.mac1609_4 SNIRLostPackets 0
scalar FLScenario.node[18].nic.mac1609_4 RXTXLostPackets 0
scalar FLScenario.node[18].nic.mac1609_4 TotalLostPackets 0
scalar FLScenario.node[18].nic.mac1609_4 DroppedPacketsInMac 0
scalar FLScenario.node[18].nic.mac1609_4 TooLittleTime 0
scalar FLScenario.node[18].nic.mac1609_4 TimesIntoBackoff 0
scalar FLScenario.node[18].nic.mac1609_4 SlotsBackoff 0
scalar FLScenario.node[18].nic.mac1609_4 NumInternalContention 0
scalar FLScenario.node[18].nic.mac1609_4 totalBusyTime 0
scalar FLScenario.node[18].veinsmobility startTime 19
scalar FLScenario.node[18].veinsmobility totalTime 76
scalar FLScenario.node[18].veinsmobility stopTime 96
scalar FLScenario.node[18].veinsmobility minSpeed 0
scalar FLScenario.node[18].veinsmobility maxSpeed 13.887062989185
scalar FLScenario.node[18].veinsmobility totalDistance 777.0749641398
scalar FLScenario.node[18].veinsmobility totalCO2Emission 167.70733500889
scalar FLScenario.node[35].appl generatedWSMs 0
scalar FLScenario.node[35].appl receivedWSMs 0
scalar FLScenario.node[35].appl generatedBSMs 0
scalar FLScenario.node[35].appl receivedBSMs 0
scalar FLScenario.node[35].appl generatedWSAs 0
scalar FLScenario.node[35].appl receivedWSAs 0
scalar FLScenario.node[35].nic.phy80211p busyTime 0
scalar FLScenario.node[35].nic.mac1609_4 ReceivedUnicastPackets 0
scalar FLScenario.node[35].nic.mac1609_4 ReceivedBroadcasts 0
scalar FLScenario.node[35].nic.mac1609_4 SentPackets 0
scalar FLScenario.node[35].nic.mac1609_4 SentAcknowledgements 0
scalar FLScenario.node[35].nic.mac1609_4 SNIRLostPackets 0
scalar FLScenario.node[35].nic.mac1609_4 RXTXLostPackets 0
scalar FLScenario.node[35].nic.mac1609_4 TotalLostPackets 0
scalar FLScenario.node[35].nic.mac1609_4 DroppedPacketsInMac 0
scalar FLScenario.node[35].nic.mac1609_4 TooLittleTime 0
scalar FLScenario.node[35].nic.mac1609_4 TimesIntoBackoff 0
scalar FLScenario.node[35].nic.mac1609_4 SlotsBackoff 0
scalar FLScenario.node[35].nic.mac1609_4 NumInternalContention 0
scalar FLScenario.node[35].nic.mac1609_4 totalBusyTime 0
scalar FLScenario.node[35].veinsmobility startTime 36
scalar FLScenario.node[35].veinsmobility totalTime 59
scalar FLScenario.node[35].veinsmobility stopTime 96
scalar FLScenario.node[35].veinsmobility minSpeed 0.92585812105099
scalar FLScenario.node[35].veinsmobility maxSpeed 12.780687724334
scalar FLScenario.node[35].veinsmobility totalDistance 595.2290230112
scalar FLScenario.node[35].veinsmobility totalCO2Emission 143.70435777777
scalar FLScenario.node[16].appl generatedWSMs 0
scalar FLScenario.node[16].appl receivedWSMs 0
scalar FLScenario.node[16].appl generatedBSMs 0
scalar FLScenario.node[16].appl receivedBSMs 0
scalar FLScenario.node[16].appl generatedWSAs 0
scalar FLScenario.node[16].appl receivedWSAs 0
scalar FLScenario.node[16].nic.phy80211p busyTime 0
scalar FLScenario.node[16].nic.mac1609_4 ReceivedUnicastPackets 0
scalar FLScenario.node[16].nic.mac1609_4 ReceivedBroadcasts 0
scalar FLScenario.node[16].nic.mac1609_4 SentPackets 0
scalar FLScenario.node[16].nic.mac1609_4 SentAcknowledgements 0
scalar FLScenario.node[16].nic.mac1609_4 SNIRLostPackets 0
scalar FLScenario.node[16].nic.mac1609_4 RXTXLostPackets 0
scalar FLScenario.node[16].nic.mac1609_4 TotalLostPackets 0
scalar FLScenario.node[16].nic.mac1609_4 DroppedPacketsInMac 0
scalar FLScenario.node[16].nic.mac1609_4 TooLittleTime 0
scalar FLScenario.node[16].nic.mac1609_4 TimesIntoBackoff 0
scalar FLScenario.node[16].nic.mac1609_4 SlotsBackoff 0
scalar FLScenario.node[16].nic.mac1609_4 NumInternalContention 0
scalar FLScenario.node[16].nic.mac1609_4 totalBusyTime 0
scalar FLScenario.node[16].veinsmobility startTime 17
scalar FLScenario.node[16].veinsmobility totalTime 83
scalar FLScenario.node[16].veinsmobility stopTime 101
scalar FLScenario.node[16].veinsmobility minSpeed 0
scalar FLScenario.node[16].veinsmobility maxSpeed 14.676622483869
scalar FLScenario.node[16].veinsmobility totalDistance 406.48224837005
scalar FLScenario.node[16].veinsmobility totalCO2Emission 173.15577518419
scalar FLScenario.node[27].appl generatedWSMs 0
scalar FLScenario.node[27].appl receivedWSMs 0
scalar FLScenario.node[27].appl generatedBSMs 0
scalar FLScenario.node[27].appl receivedBSMs 0
scalar FLScenario.node[27].appl generatedWSAs 0
scalar FLScenario.node[27].appl receivedWSAs 0
scalar FLScenario.node[27].nic.phy80211p busyTime 0
scalar FLScenario.node[27].nic.mac1609_4 ReceivedUnicastPackets 0
scalar FLScenario.node[27].nic.mac1609_4 ReceivedBroadcasts 0
scalar FLScenario.node[27].nic.mac1609_4 SentPackets 0
scalar FLScenario.node[27].nic.mac1609_4 SentAcknowledgements 0
scalar FLScenario.node[27].nic.mac1609_4 SNIRLostPackets 0
scalar FLScenario.node[27].nic.mac1609_4 RXTXLostPackets 0
scalar FLScenario.node[27].nic.mac1609_4 TotalLostPackets 0
scalar FLScenario.node[27].nic.mac1609_4 DroppedPacketsInMac 0
scalar FLScenario.node[27].nic.mac1609_4 TooLittleTime 0
scalar FLScenario.node[27].nic.mac1609_4 TimesIntoBackoff 0
scalar FLScenario.node[27].nic.mac1609_4 SlotsBackoff 0
scalar FLScenario.node[27].nic.mac1609_4 NumInternalContention 0
scalar FLScenario.node[27].nic.mac1609_4 totalBusyTime 0
scalar FLScenario.node[27].veinsmobility startTime 28
scalar FLScenario.node[27].veinsmobility totalTime 72
scalar FLScenario.node[27].veinsmobility stopTime 101
scalar FLScenario.node[27].veinsmobility minSpeed 0.00025183572490547
scalar FLScenario.node[27].veinsmobility maxSpeed 15.016596933809
scalar FLScenario.node[27].veinsmobility totalDistance 594.80891029963
scalar FLScenario.node[27].veinsmobility totalCO2Emission 204.245715533
scalar FLScenario.node[53].appl generatedWSMs 0
scalar FLScenario.node[53].appl receivedWSMs 0
scalar FLScenario.node[53].appl generatedBSMs 0
scalar FLScenario.node[53].appl receivedBSMs 0
scalar FLScenario.node[53].appl generatedWSAs 0
scalar FLScenario.node[53].appl receivedWSAs 0
scalar FLScenario.node[53].nic.phy80211p busyTime 0
scalar FLScenario.node[53].nic.mac1609_4 ReceivedUnicastPackets 0
scalar FLScenario.node[53].nic.mac1609_4 ReceivedBroadcasts 0
scalar FLScenario.node[53].nic.mac1609_4 SentPackets 0
scalar FLScenario.node[53].nic.mac1609_4 SentAcknowledgements 0
scalar FLScenario.node[53].nic.mac1609_4 SNIRLostPackets 0
scalar FLScenario.node[53].nic.mac1609_4 RXTXLostPackets 0
scalar FLScenario.node[53].nic.mac1609_4 TotalLostPackets 0
scalar FLScenario.node[53].nic.mac1609_4 DroppedPacketsInMac 0
scalar FLScenario.node[53].nic.mac1609_4 TooLittleTime 0
scalar FLScenario.node[53].nic.mac1609_4 TimesIntoBackoff 0
scalar FLScenario.node[53].nic.mac1609_4 SlotsBackoff 0
scalar FLScenario.node[53].nic.mac1609_4 NumInternalContention 0
scalar FLScenario.node[53].nic.mac1609_4 totalBusyTime 0
scalar FLScenario.node[53].veinsmobility startTime 54
scalar FLScenario.node[53].veinsmobility totalTime 52
scalar FLScenario.node[53].veinsmobility stopTime 107
scalar FLScenario.node[53].veinsmobility minSpeed 1.3090098692519
scalar FLScenario.node[53].veinsmobility maxSpeed 11.985245863938
scalar FLScenario.node[53].veinsmobility totalDistance 529.11645618503
scalar FLScenario.node[53].veinsmobility totalCO2Emission 132.49527332403
scalar FLScenario.node[3].appl generatedWSMs 0
scalar FLScenario.node[3].appl receivedWSMs 0
scalar FLScenario.node[3].appl generatedBSMs 0
scalar FLScenario.node[3].appl receivedBSMs 0
scalar FLScenario.node[3].appl generatedWSAs 0
scalar FLScenario.node[3].appl receivedWSAs 0
scalar FLScenario.node[3].nic.phy80211p busyTime 0
scalar FLScenario.node[3].nic.mac1609_4 ReceivedUnicastPackets 0
scalar FLScenario.node[3].nic.mac1609_4 ReceivedBroadcasts 0
scalar FLScenario.node[3].nic.mac1609_4 SentPackets 0
scalar FLScenario.node[3].nic.mac1609_4 SentAcknowledgements 0
scalar FLScenario.node[3].nic.mac1609_4 SNIRLostPackets 0
scalar FLScenario.node[3].nic.mac1609_4 RXTXLostPackets 0
scalar FLScenario.node[3].nic.mac1609_4 TotalLostPackets 0
scalar FLScenario.node[3].nic.mac1609_4 DroppedPacketsInMac 0
scalar FLScenario.node[3].nic.mac1609_4 TooLittleTime 0
scalar FLScenario.node[3].nic.mac1609_4 TimesIntoBackoff 0
scalar FLScenario.node[3].nic.mac1609_4 SlotsBackoff 0
scalar FLScenario.node[3].nic.mac1609_4 NumInternalContention 0
scalar FLScenario.node[3].nic.mac1609_4 totalBusyTime 0
scalar FLScenario.node[3].veinsmobility startTime 4
scalar FLScenario.node[3].veinsmobility totalTime 103
scalar FLScenario.node[3].veinsmobility stopTime 108
scalar FLScenario.node[3].veinsmobility minSpeed 0.88141833103569
scalar FLScenario.node[3].veinsmobility maxSpeed 14.102037951213
scalar FLScenario.node[3].veinsmobility totalDistance 1104.7507845878
scalar FLScenario.node[3].veinsmobility totalCO2Emission 286.7822437195
scalar FLScenario.node[1].appl generatedWSMs 0
scalar FLScenario.node[1].appl receivedWSMs 0
scalar FLScenario.node[1].appl generatedBSMs 0
scalar FLScenario.node[1].appl receivedBSMs 0
scalar FLScenario.node[1].appl generatedWSAs 0
scalar FLScenario.node[1].appl receivedWSAs 0
scalar FLScenario.node[1].nic.phy80211p busyTime 0
scalar FLScenario.node[1].nic.mac1609_4 ReceivedUnicastPackets 0
scalar FLScenario.node[1].nic.mac1609_4 ReceivedBroadcasts 0
scalar FLScenario.node[1].nic.mac1609_4 SentPackets 0
scalar FLScenario.node[1].nic.mac1609_4 SentAcknowledgements 0
scalar FLScenario.node[1].nic.mac1609_4 SNIRLostPackets 0
scalar FLScenario.node[1].nic.mac1609_4 RXTXLostPackets 0
scalar FLScenario.node[1].nic.mac1609_4 TotalLostPackets 0
scalar FLScenario.node[1].nic.mac1609_4 DroppedPacketsInMac 0
scalar FLScenario.node[1].nic.mac1609_4 TooLittleTime 0
scalar FLScenario.node[1].nic.mac1609_4 TimesIntoBackoff 0
scalar FLScenario.node[1].nic.mac1609_4 SlotsBackoff 0
scalar FLScenario.node[1].nic.mac1609_4 NumInternalContention 0
scalar FLScenario.node[1].nic.mac1609_4 totalBusyTime 0
scalar FLScenario.node[1].veinsmobility startTime 2
scalar FLScenario.node[1].veinsmobility totalTime 106
scalar FLScenario.node[1].veinsmobility stopTime 109
scalar FLScenario.node[1].veinsmobility minSpeed 3.4535469207913
scalar FLScenario.node[1].veinsmobility maxSpeed 14.50397461102
scalar FLScenario.node[1].veinsmobility totalDistance 1051.9065665239
scalar FLScenario.node[1].veinsmobility totalCO2Emission 412.21948083118
scalar FLScenario.node[42].appl generatedWSMs 0
scalar FLScenario.node[42].appl receivedWSMs 0
scalar FLScenario.node[42].appl generatedBSMs 0
scalar FLScenario.node[42].appl receivedBSMs 0
scalar FLScenario.node[42].appl generatedWSAs 0
scalar FLScenario.node[42].appl receivedWSAs 0
scalar FLScenario.node[42].nic.phy80211p busyTime 0
scalar FLScenario.node[42].nic.mac1609_4 ReceivedUnicastPackets 0
scalar FLScenario.node[42].nic.mac1609_4 ReceivedBroadcasts 0
scalar FLScenario.node[42].nic.mac1609_4 SentPackets 0
scalar FLScenario.node[42].nic.mac1609_4 SentAcknowledgements 0
scalar FLScenario.node[42].nic.mac1609_4 SNIRLostPackets 0
scalar FLScenario.node[42].nic.mac1609_4 RXTXLostPackets 0
scalar FLScenario.node[42].nic.mac1609_4 TotalLostPackets 0
scalar FLScenario.node[42].nic.mac1609_4 DroppedPacketsInMac 0
scalar FLScenario.node[42].nic.mac1609_4 TooLittleTime 0
scalar FLScenario.node[42].nic.mac1609_4 TimesIntoBackoff 0
scalar FLScenario.node[42].nic.mac1609_4 SlotsBackoff 0
scalar FLScenario.node[42].nic.mac1609_4 NumInternalContention 0
scalar FLScenario.node[42].nic.mac1609_4 totalBusyTime 0
scalar FLScenario.node[42].veinsmobility startTime 44
scalar FLScenario.node[42].veinsmobility totalTime 67
scalar FLScenario.node[42].veinsmobility stopTime 112
scalar FLScenario.node[42].veinsmobility minSpeed 1.5356778701767
scalar FLScenario.node[42].veinsmobility maxSpeed 14.250293606982
scalar FLScenario.node[42].veinsmobility totalDistance 829.52240052661
scalar FLScenario.node[42].veinsmobility totalCO2Emission 187.90294557965
scalar FLScenario.node[83].appl generatedWSMs 0
scalar FLScenario.node[83].appl receivedWSMs 0
scalar FLScenario.node[83].appl generatedBSMs 0
scalar FLScenario.node[83].appl receivedBSMs 0
scalar FLScenario.node[83].appl generatedWSAs 0
scalar FLScenario.node[83].appl receivedWSAs 0
scalar FLScenario.node[83].nic.phy80211p busyTime 0
scalar FLScenario.node[83].nic.mac1609_4 ReceivedUnicastPackets 0
scalar FLScenario.node[83].nic.mac1609_4 ReceivedBroadcasts 0
scalar FLScenario.node[83].nic.mac1609_4 SentPackets 0
scalar FLScenario.node[83].nic.mac1609_4 SentAcknowledgements 0
scalar FLScenario.node[83].nic.mac1609_4 SNIRLostPackets 0
scalar FLScenario.node[83].nic.mac1609_4 RXTXLostPackets 0
scalar FLScenario.node[83].nic.mac1609_4 TotalLostPackets 0
scalar FLScenario.node[83].nic.mac1609_4 DroppedPacketsInMac 0
scalar FLScenario.node[83].nic.mac1609_4 TooLittleTime 0
scalar FLScenario.node[83].nic.mac1609_4 TimesIntoBackoff 0
scalar FLScenario.node[83].nic.mac1609_4 SlotsBackoff 0
scalar FLScenario.node[83].nic.mac1609_4 NumInternalContention 0
scalar FLScenario.node[83].nic.mac1609_4 totalBusyTime 0
scalar FLScenario.node[83].veinsmobility startTime 84
scalar FLScenario.node[83].veinsmobility totalTime 28
scalar FLScenario.node[83].veinsmobility stopTime 113
scalar FLScenario.node[83].veinsmobility minSpeed 2.2058069107821
scalar FLScenario.node[83].veinsmobility maxSpeed 16.30966517199
scalar FLScenario.node[83].veinsmobility totalDistance 336.96258889648
scalar FLScenario.node[83].veinsmobility totalCO2Emission 112.56253935218
scalar FLScenario.node[49].appl generatedWSMs 0
scalar FLScenario.node[49].appl receivedWSMs 0
scalar FLScenario.node[49].appl generatedBSMs 0
scalar FLScenario.node[49].appl receivedBSMs 0
scalar FLScenario.node[49].appl generatedWSAs 0
scalar FLScenario.node[49].appl receivedWSAs 0
scalar FLScenario.node[49].nic.phy80211p busyTime 0
scalar FLScenario.node[49].nic.mac1609_4 ReceivedUnicastPackets 0
scalar FLScenario.node[49].nic.mac1609_4 ReceivedBroadcasts 0
scalar FLScenario.node[49].nic.mac1609_4 SentPackets 0
scalar FLScenario.node[49].nic.mac1609_4 SentAcknowledgements 0
scalar FLScenario.node[49].nic.mac1609_4 SNIRLostPackets 0
scalar FLScenario.node[49].nic.mac1609_4 RXTXLostPackets 0
scalar FLScenario.node[49].nic.mac1609_4 TotalLostPackets 0
scalar FLScenario.node[49].nic.mac1609_4 DroppedPacketsInMac 0
scalar FLScenario.node[49].nic.mac1609_4 TooLittleTime 0
scalar FLScenario.node[49].nic.mac1609_4 TimesIntoBackoff 0
scalar FLScenario.node[49].nic.mac1609_4 SlotsBackoff 0
scalar FLScenario.node[49].nic.mac1609_4 NumInternalContention 0
scalar FLScenario.node[49].nic.mac1609_4 totalBusyTime 0
scalar FLScenario.node[49].veinsmobility startTime 51
scalar FLScenario.node[49].veinsmobility totalTime 62
scalar FLScenario.node[49].veinsmobility stopTime 114
scalar FLScenario.node[49].veinsmobility minSpeed 0
scalar FLScenario.node[49].veinsmobility maxSpeed 11.709025496446
scalar FLScenario.node[49].veinsmobility totalDistance 398.01400670935
scalar FLScenario.node[49].veinsmobility totalCO2Emission 145.95035906954
scalar FLScenario.node[7].appl generatedWSMs 0
scalar FLScenario.node[7].appl receivedWSMs 0
scalar FLScenario.node[7].appl generatedBSMs 0
scalar FLScenario.node[7].appl receivedBSMs 0
scalar FLScenario.node[7].appl generatedWSAs 0
scalar FLScenario.node[7].appl receivedWSAs 0
scalar FLScenario.node[7].nic.phy80211p busyTime 0
scalar FLScenario.node[7].nic.mac1609_4 ReceivedUnicastPackets 0
scalar FLScenario.node[7].nic.mac1609_4 ReceivedBroadcasts 0
scalar FLScenario.node[7].nic.mac1609_4 SentPackets 0
scalar FLScenario.node[7].nic.mac1609_4 SentAcknowledgements 0
scalar FLScenario.node[7].nic.mac1609_4 SNIRLostPackets 0
scalar FLScenario.node[7].nic.mac1609_4 RXTXLostPackets 0
scalar FLScenario.node[7].nic.mac1609_4 TotalLostPackets 0
scalar FLScenario.node[7].nic.mac1609_4 DroppedPacketsInMac 0
scalar FLScenario.node[7].nic.mac1609_4 TooLittleTime 0
scalar FLScenario.node[7].nic.mac1609_4 TimesIntoBackoff 0
scalar FLScenario.node[7].nic.mac1609_4 SlotsBackoff 0
scalar FLScenario.node[7].nic.mac1609_4 NumInternalContention 0
scalar FLScenario.node[7].nic.mac1609_4 totalBusyTime 0
scalar FLScenario.node[7].veinsmobility startTime 8
scalar FLScenario.node[7].veinsmobility totalTime 107
scalar FLScenario.node[7].veinsmobility stopTime 116
scalar FLScenario.node[7].veinsmobility minSpeed 1.529956558696
scalar FLScenario.node[7].veinsmobility maxSpeed 10.61375588392
scalar FLScenario.node[7].veinsmobility totalDistance 963.44436658053
scalar FLScenario.node[7].veinsmobility totalCO2Emission 235.91487074597
scalar FLScenario.node[19].appl generatedWSMs 0
scalar FLScenario.node[19].appl receivedWSMs 0
scalar FLScenario.node[19].appl generatedBSMs 0
scalar FLScenario.node[19].appl receivedBSMs 0
scalar FLScenario.node[19].appl generatedWSAs 0
scalar FLScenario.node[19].appl receivedWSAs 0
scalar FLScenario.node[19].nic.phy80211p busyTime 0
scalar FLScenario.node[19].nic.mac1609_4 ReceivedUnicastPackets 0
scalar FLScenario.node[19].nic.mac1609_4 ReceivedBroadcasts 0
scalar FLScenario.node[19].nic.mac1609_4 SentPackets 0
scalar FLScenario.node[19].nic.mac1609_4 SentAcknowledgements 0
scalar FLScenario.node[19].nic.mac1609_4 SNIRLostPackets 0
scalar FLScenario.node[19].nic.mac1609_4 RXTXLostPackets 0
scalar FLScenario.node[19].nic.mac1609_4 TotalLostPackets 0
scalar FLScenario.node[19].nic.mac1609_4 DroppedPacketsInMac 0
scalar FLScenario.node[19].nic.mac1609_4 TooLittleTime 0
scalar FLScenario.node[19].nic.mac1609_4 TimesIntoBackoff 0
scalar FLScenario.node[19].nic.mac1609_4 SlotsBackoff 0
scalar FLScenario.node[19].nic.mac1609_4 NumInternalContention 0
scalar FLScenario.node[19].nic.mac1609_4 totalBusyTime 0
scalar FLScenario.node[19].veinsmobility startTime 20
scalar FLScenario.node[19].veinsmobility totalTime 98
scalar FLScenario.node[19].veinsmobility stopTime 119
scalar FLScenario.node[19].veinsmobility minSpeed 0
scalar FLScenario.node[19].veinsmobility maxSpeed 15.341421632825
scalar FLScenario.node[19].veinsmobility totalDistance 654.28442512765
scalar FLScenario.node[19].veinsmobility totalCO2Emission 252.02712106789
scalar FLScenario.node[79].appl generatedWSMs 0
scalar FLScenario.node[79].appl receivedWSMs 0
scalar FLScenario.node[79].appl generatedBSMs 0
scalar FLScenario.node[79].appl receivedBSMs 0
scalar FLScenario.node[79].appl generatedWSAs 0
scalar FLScenario.node[79].appl receivedWSAs 0
scalar FLScenario.node[79].nic.phy80211p busyTime 0
scalar FLScenario.node[79].nic.mac1609_4 ReceivedUnicastPackets 0
scalar FLScenario.node[79].nic.mac1609_4 ReceivedBroadcasts 0
scalar FLScenario.node[79].nic.mac1609_4 SentPackets 0
scalar FLScenario.node[79].nic.mac1609_4 SentAcknowledgements 0
scalar FLScenario.node[79].nic.mac1609_4 SNIRLostPackets 0
scalar FLScenario.node[79].nic.mac1609_4 RXTXLostPackets 0
scalar FLScenario.node[79].nic.mac1609_4 TotalLostPackets 0
scalar FLScenario.node[79].nic.mac1609_4 DroppedPacketsInMac 0
scalar FLScenario.node[79].nic.mac1609_4 TooLittleTime 0
scalar FLScenario.node[79].nic.mac1609_4 TimesIntoBackoff 0
scalar FLScenario.node[79].nic.mac1609_4 SlotsBackoff 0
scalar FLScenario.node[79].nic.mac1609_4 NumInternalContention 0
scalar FLScenario.node[79].nic.mac1609_4 totalBusyTime 0
scalar FLScenario.node[79].veinsmobility startTime 81
scalar FLScenario.node[79].veinsmobility totalTime 38
scalar FLScenario.node[79].veinsmobility stopTime 120
scalar FLScenario.node[79].veinsmobility minSpeed 1.6587082635844
scalar FLScenario.node[79].veinsmobility maxSpeed 12.610254692072
scalar FLScenario.node[79].veinsmobility totalDistance 398.50138738509
scalar FLScenario.node[79].veinsmobility totalCO2Emission 108.11487459337
scalar FLScenario.node[31].appl generatedWSMs 0
scalar FLScenario.node[31].appl receivedWSMs 0
scalar FLScenario.node[31].appl generatedBSMs 0
scalar FLScenario.node[31].appl receivedBSMs 0
scalar FLScenario.node[31].appl generatedWSAs 0
scalar FLScenario.node[31].appl receivedWSAs 0
scalar FLScenario.node[31].nic.phy80211p busyTime 0
scalar FLScenario.node[31].nic.mac1609_4 ReceivedUnicastPackets 0
scalar FLScenario.node[31].nic.mac1609_4 ReceivedBroadcasts 0
scalar FLScenario.node[31].nic.mac1609_4 SentPackets 0
scalar FLScenario.node[31].nic.mac1609_4 SentAcknowledgements 0
scalar FLScenario.node[31].nic.mac1609_4 SNIRLostPackets 0
scalar FLScenario.node[31].nic.mac1609_4 RXTXLostPackets 0
scalar FLScenario.node[31].nic.mac1609_4 TotalLostPackets 0
scalar FLScenario.node[31].nic.mac1609_4 DroppedPacketsInMac 0
scalar FLScenario.node[31].nic.mac1609_4 TooLittleTime 0
scalar FLScenario.node[31].nic.mac1609_4 TimesIntoBackoff 0
scalar FLScenario.node[31].nic.mac1609_4 SlotsBackoff 0
scalar FLScenario.node[31].nic.mac1609_4 NumInternalContention 0
scalar FLScenario.node[31].nic.mac1609_4 totalBusyTime 0
scalar FLScenario.node[31].veinsmobility startTime 33
scalar FLScenario.node[31].veinsmobility totalTime 88
scalar FLScenario.node[31].veinsmobility stopTime 122
scalar FLScenario.node[31].veinsmobility minSpeed 2.0182335835416
scalar FLScenario.node[31].veinsmobility maxSpeed 14.441429201033
scalar FLScenario.node[31].veinsmobility totalDistance 957.25239915998
scalar FLScenario.node[31].veinsmobility totalCO2Emission 262.83681082147
scalar FLScenario.node[32].appl generatedWSMs 0
scalar FLScenario.node[32].appl receivedWSMs 0
scalar FLScenario.node[32].appl generatedBSMs 0
scalar FLScenario.node[32].appl receivedBSMs 0
scalar FLScenario.node[32].appl generatedWSAs 0
scalar FLScenario.node[32].appl receivedWSAs 0
scalar FLScenario.node[32].nic.phy80211p busyTime 0
scalar FLScenario.node[32].nic.mac1609_4 ReceivedUnicastPackets 0
scalar FLScenario.node[32].nic.mac1609_4 ReceivedBroadcasts 0
scalar FLScenario.node[32].nic.mac1609_4 SentPackets 0
scalar FLScenario.node[32].nic.mac1609_4 SentAcknowledgements 0
scalar FLScenario.node[32].nic.mac1609_4 SNIRLostPackets 0
scalar FLScenario.node[32].nic.mac1609_4 RXTXLostPackets 0
scalar FLScenario.node[32].nic.mac1609_4 TotalLostPackets 0
scalar FLScenario.node[32].nic.mac1609_4 DroppedPacketsInMac 0
scalar FLScenario.node[32].nic.mac1609_4 TooLittleTime 0
scalar FLScenario.node[32].nic.mac1609_4 TimesIntoBackoff 0
scalar FLScenario.node[32].nic.mac1609_4 SlotsBackoff 0
scalar FLScenario.node[32].nic.mac1609_4 NumInternalContention 0
scalar FLScenario.node[32].nic.mac1609_4 totalBusyTime 0
scalar FLScenario.node[32].veinsmobility startTime 33
scalar FLScenario.node[32].veinsmobility totalTime 88
scalar FLScenario.node[32].veinsmobility stopTime 122
scalar FLScenario.node[32].veinsmobility minSpeed 0
scalar FLScenario.node[32].veinsmobility maxSpeed 15.96422812653
scalar FLScenario.node[32].veinsmobility totalDistance 854.34211957545
scalar FLScenario.node[32].veinsmobility totalCO2Emission 215.92546147598
scalar FLScenario.node[41].appl generatedWSMs 0
scalar FLScenario.node[41].appl receivedWSMs 0
scalar FLScenario.node[41].appl generatedBSMs 0
scalar FLScenario.node[41].appl receivedBSMs 0
scalar FLScenario.node[41].appl generatedWSAs 0
scalar FLScenario.node[41].appl receivedWSAs 0
scalar FLScenario.node[41].nic.phy80211p busyTime 0
scalar FLScenario.node[41].nic.mac1609_4 ReceivedUnicastPackets 0
scalar FLScenario.node[41].nic.mac1609_4 ReceivedBroadcasts 0
scalar FLScenario.node[41].nic.mac1609_4 SentPackets 0
scalar FLScenario.node[41].nic.mac1609_4 SentAcknowledgements 0
scalar FLScenario.node[41].nic.mac1609_4 SNIRLostPackets 0
scalar FLScenario.node[41].nic.mac1609_4 RXTXLostPackets 0
scalar FLScenario.node[41].nic.mac1609_4 TotalLostPackets 0
scalar FLScenario.node[41].nic.mac1609_4 DroppedPacketsInMac 0
scalar FLScenario.node[41].nic.mac1609_4 TooLittleTime 0
scalar FLScenario.node[41].nic.mac1609_4 TimesIntoBackoff 0
scalar FLScenario.node[41].nic.mac1609_4 SlotsBackoff 0
scalar FLScenario.node[41].nic.mac1609_4 NumInternalContention 0
scalar FLScenario.node[41].nic.mac1609_4 totalBusyTime 0
scalar FLScenario.node[41].veinsmobility startTime 43
scalar FLScenario.node[41].veinsmobility totalTime 79
scalar FLScenario.node[41].veinsmobility stopTime 123
scalar FLScenario.node[41].veinsmobility minSpeed 0.0089960118128181
scalar FLScenario.node[41].veinsmobility maxSpeed 13.841017652848
scalar FLScenario.node[41].veinsmobility totalDistance 805.69124280016
scalar FLScenario.node[41].veinsmobility totalCO2Emission 224.89210981185
scalar FLScenario.node[45].appl generatedWSMs 0
scalar FLScenario.node[45].appl receivedWSMs 0
scalar FLScenario.node[45].appl generatedBSMs 0
scalar FLScenario.node[45].appl receivedBSMs 0
scalar FLScenario.node[45].appl generatedWSAs 0
scalar FLScenario.node[45].appl receivedWSAs 0
scalar FLScenario.node[45].nic.phy80211p busyTime 0
scalar FLScenario.node[45].nic.mac1609_4 ReceivedUnicastPackets 0
scalar FLScenario.node[45].nic.mac1609_4 ReceivedBroadcasts 0
scalar FLScenario.node[45].nic.mac1609_4 SentPackets 0
scalar FLScenario.node[45].nic.mac1609_4 SentAcknowledgements 0
scalar FLScenario.node[45].nic.mac1609_4 SNIRLostPackets 0
scalar FLScenario.node[45].nic.mac1609_4 RXTXLostPackets 0
scalar FLScenario.node[45].nic.mac1609_4 TotalLostPackets 0
scalar FLScenario.node[45].nic.mac1609_4 DroppedPacketsInMac 0
scalar FLScenario.node[45].nic.mac1609_4 TooLittleTime 0
scalar FLScenario.node[45].nic.mac1609_4 TimesIntoBackoff 0
scalar FLScenario.node[45].nic.mac1609_4 SlotsBackoff 0
scalar FLScenario.node[45].nic.mac1609_4 NumInternalContention 0
scalar FLScenario.node[45].nic.mac1609_4 totalBusyTime 0
scalar FLScenario.node[45].veinsmobility startTime 46
scalar FLScenario.node[45].veinsmobility totalTime 77
scalar FLScenario.node[45].veinsmobility stopTime 124
scalar FLScenario.node[45].veinsmobility minSpeed 0
scalar FLScenario.node[45].veinsmobility maxSpeed 13.987108596133
scalar FLScenario.node[45].veinsmobility totalDistance 652.69540788483
scalar FLScenario.node[45].veinsmobility totalCO2Emission 220.50118238743
scalar FLScenario.node[52].appl generatedWSMs 0
scalar FLScenario.node[52].appl receivedWSMs 0
scalar FLScenario.node[52].appl generatedBSMs 0
scalar FLScenario.node[52].appl receivedBSMs 0
scalar FLScenario.node[52].appl generatedWSAs 0
scalar FLScenario.node[52].appl receivedWSAs 0
scalar FLScenario.node[52].nic.phy80211p busyTime 0
scalar FLScenario.node[52].nic.mac1609_4 ReceivedUnicastPackets 0
scalar FLScenario.node[52].nic.mac1609_4 ReceivedBroadcasts 0
scalar FLScenario.node[52].nic.mac1609_4 SentPackets 0
scalar FLScenario.node[52].nic.mac1609_4 SentAcknowledgements 0
scalar FLScenario.node[52].nic.mac1609_4 SNIRLostPackets 0
scalar FLScenario.node[52].nic.mac1609_4 RXTXLostPackets 0
scalar FLScenario.node[52].nic.mac1609_4 TotalLostPackets 0
scalar FLScenario.node[52].nic.mac1609_4 DroppedPacketsInMac 0
scalar FLScenario.node[52].nic.mac1609_4 TooLittleTime 0
scalar FLScenario.node[52].nic.mac1609_4 TimesIntoBackoff 0
scalar FLScenario.node[52].nic.mac1609_4 SlotsBackoff 0
scalar FLScenario.node[52].nic.mac1609_4 NumInternalContention 0
scalar FLScenario.node[52].nic.mac1609_4 totalBusyTime 0
scalar FLScenario.node[52].veinsmobility startTime 53
scalar FLScenario.node[52].veinsmobility totalTime 70
scalar FLScenario.node[52].veinsmobility stopTime 124
scalar FLScenario.node[52].veinsmobility minSpeed 2.4395886240527
scalar FLScenario.node[52].veinsmobility maxSpeed 10.384630299635
scalar FLScenario.node[52].veinsmobility totalDistance 640.18397851379
scalar FLScenario.node[52].veinsmobility totalCO2Emission 142.84813247823
scalar FLScenario.node[90].appl generatedWSMs 0
scalar FLScenario.node[90].appl receivedWSMs 0
scalar FLScenario.node[90].appl generatedBSMs 0
scalar FLScenario.node[90].appl receivedBSMs 0
scalar FLScenario.node[90].appl generatedWSAs 0
scalar FLScenario.node[90].appl receivedWSAs 0
scalar FLScenario.node[90].nic.phy80211p busyTime 0
scalar FLScenario.node[90].nic.mac1609_4 ReceivedUnicastPackets 0
scalar FLScenario.node[90].nic.mac1609_4 ReceivedBroadcasts 0
scalar FLScenario.node[90].nic.mac1609_4 SentPackets 0
scalar FLScenario.node[90].nic.mac1609_4 SentAcknowledgements 0
scalar FLScenario.node[90].nic.mac1609_4 SNIRLostPackets 0
scalar FLScenario.node[90].nic.mac1609_4 RXTXLostPackets 0
scalar FLScenario.node[90].nic.mac1609_4 TotalLostPackets 0
scalar FLScenario.node[90].nic.mac1609_4 DroppedPacketsInMac 0
scalar FLScenario.node[90].nic.mac1609_4 TooLittleTime 0
scalar FLScenario.node[90].nic.mac1609_4 TimesIntoBackoff 0
scalar FLScenario.node[90].nic.mac1609_4 SlotsBackoff 0
scalar FLScenario.node[90].nic.mac1609_4 NumInternalContention 0
scalar FLScenario.node[90].nic.mac1609_4 totalBusyTime 0
scalar FLScenario.node[90].veinsmobility startTime 91
scalar FLScenario.node[90].veinsmobility totalTime 35
scalar FLScenario.node[90].veinsmobility stopTime 127
scalar FLScenario.node[90].veinsmobility minSpeed 0.75837483294106
scalar FLScenario.node[90].veinsmobility maxSpeed 15.207973403389
scalar FLScenario.node[90].veinsmobility totalDistance 337.19895903415
scalar FLScenario.node[90].veinsmobility totalCO2Emission 124.48790853317
scalar FLScenario.node[25].appl generatedWSMs 0
scalar FLScenario.node[25].appl receivedWSMs 0
scalar FLScenario.node[25].appl generatedBSMs 0
scalar FLScenario.node[25].appl receivedBSMs 0
scalar FLScenario.node[25].appl generatedWSAs 0
scalar FLScenario.node[25].appl receivedWSAs 0
scalar FLScenario.node[25].nic.phy80211p busyTime 0
scalar FLScenario.node[25].nic.mac1609_4 ReceivedUnicastPackets 0
scalar FLScenario.node[25].nic.mac1609_4 ReceivedBroadcasts 0
scalar FLScenario.node[25].nic.mac1609_4 SentPackets 0
scalar FLScenario.node[25].nic.mac1609_4 SentAcknowledgements 0
scalar FLScenario.node[25].nic.mac1609_4 SNIRLostPackets 0
scalar FLScenario.node[25].nic.mac1609_4 RXTXLostPackets 0
scalar FLScenario.node[25].nic.mac1609_4 TotalLostPackets 0
scalar FLScenario.node[25].nic.mac1609_4 DroppedPacketsInMac 0
scalar FLScenario.node[25].nic.mac1609_4 TooLittleTime 0
scalar FLScenario.node[25].nic.mac1609_4 TimesIntoBackoff 0
scalar FLScenario.node[25].nic.mac1609_4 SlotsBackoff 0
scalar FLScenario.node[25].nic.mac1609_4 NumInternalContention 0
scalar FLScenario.node[25].nic.mac1609_4 totalBusyTime 0
scalar FLScenario.node[25].veinsmobility startTime 26
scalar FLScenario.node[25].veinsmobility totalTime 102
scalar FLScenario.node[25].veinsmobility stopTime 129
scalar FLScenario.node[25].veinsmobility minSpeed 1.7360844859155
scalar FLScenario.node[25].veinsmobility maxSpeed 10.372977807545
scalar FLScenario.node[25].veinsmobility totalDistance 917.17397507215
scalar FLScenario.node[25].veinsmobility totalCO2Emission 205.4786383848
scalar FLScenario.node[38].appl generatedWSMs 0
scalar FLScenario.node[38].appl receivedWSMs 0
scalar FLScenario.node[38].appl generatedBSMs 0
scalar FLScenario.node[38].appl receivedBSMs 0
scalar FLScenario.node[38].appl generatedWSAs 0
scalar FLScenario.node[38].appl receivedWSAs 0
scalar FLScenario.node[38].nic.phy80211p busyTime 0
scalar FLScenario.node[38].nic.mac1609_4 ReceivedUnicastPackets 0
scalar FLScenario.node[38].nic.mac1609_4 ReceivedBroadcasts 0
scalar FLScenario.node[38].nic.mac1609_4 SentPackets 0
scalar FLScenario.node[38].nic.mac1609_4 SentAcknowledgements 0
scalar FLScenario.node[38].nic.mac1609_4 SNIRLostPackets 0
scalar FLScenario.node[38].nic.mac1609_4 RXTXLostPackets 0
scalar FLScenario.node[38].nic.mac1609_4 TotalLostPackets 0
scalar FLScenario.node[38].nic.mac1609_4 DroppedPacketsInMac 0
scalar FLScenario.node[38].nic.mac1609_4 TooLittleTime 0
scalar FLScenario.node[38].nic.mac1609_4 TimesIntoBackoff 0
scalar FLScenario.node[38].nic.mac1609_4 SlotsBackoff 0
scalar FLScenario.node[38].nic.mac1609_4 NumInternalContention 0
scalar FLScenario.node[38].nic.mac1609_4 totalBusyTime 0
scalar FLScenario.node[38].veinsmobility startTime 40
scalar FLScenario.node[38].veinsmobility totalTime 88
scalar FLScenario.node[38].veinsmobility stopTime 129
scalar FLScenario.node[38].veinsmobility minSpeed 0
scalar FLScenario.node[38].veinsmobility maxSpeed 14.565888800377
scalar FLScenario.node[38].veinsmobility totalDistance 504.41958300329
scalar FLScenario.node[38].veinsmobility totalCO2Emission 217.84626404106
scalar FLScenario.node[56].appl generatedWSMs 0
scalar FLScenario.node[56].appl receivedWSMs 0
scalar FLScenario.node[56].appl generatedBSMs 0
scalar FLScenario.node[56].appl receivedBSMs 0
scalar FLScenario.node[56].appl generatedWSAs 0
scalar FLScenario.node[56].appl receivedWSAs 0
scalar FLScenario.node[56].nic.phy80211p busyTime 0
scalar FLScenario.node[56].nic.mac1609_4 ReceivedUnicastPackets 0
scalar FLScenario.node[56].nic.mac1609_4 ReceivedBroadcasts 0
scalar FLScenario.node[56].nic.mac1609_4 SentPackets 0
scalar FLScenario.node[56].nic.mac1609_4 SentAcknowledgements 0
scalar FLScenario.node[56].nic.mac1609_4 SNIRLostPackets 0
scalar FLScenario.node[56].nic.mac1609_4 RXTXLostPackets 0
scalar FLScenario.node[56].nic.mac1609_4 TotalLostPackets 0
scalar FLScenario.node[56].nic.mac1609_4 DroppedPacketsInMac 0
scalar FLScenario.node[56].nic.mac1609_4 TooLittleTime 0
scalar FLScenario.node[56].nic.mac1609_4 TimesIntoBackoff 0
scalar FLScenario.node[56].nic.mac1609_4 SlotsBackoff 0
scalar FLScenario.node[56].nic.mac1609_4 NumInternalContention 0
scalar FLScenario.node[56].nic.mac1609_4 totalBusyTime 0
scalar FLScenario.node[56].veinsmobility startTime 58
scalar FLScenario.node[56].veinsmobility totalTime 70
scalar FLScenario.node[56].veinsmobility stopTime 129
scalar FLScenario.node[56].veinsmobility minSpeed 1.9124366020085
scalar FLScenario.node[56].veinsmobility maxSpeed 13.210645449759
scalar FLScenario.node[56].veinsmobility totalDistance 788.91853851978
scalar FLScenario.node[56].veinsmobility totalCO2Emission 173.84171685078
scalar FLScenario.node[63].appl generatedWSMs 0
scalar FLScenario.node[63].appl receivedWSMs 0
scalar FLScenario.node[63].appl generatedBSMs 0
scalar FLScenario.node[63].appl receivedBSMs 0
scalar FLScenario.node[63].appl generatedWSAs 0
scalar FLScenario.node[63].appl receivedWSAs 0
scalar FLScenario.node[63].nic.phy80211p busyTime 0
scalar FLScenario.node[63].nic.mac1609_4 ReceivedUnicastPackets 0
scalar FLScenario.node[63].nic.mac1609_4 ReceivedBroadcasts 0
scalar FLScenario.node[63].nic.mac1609_4 SentPackets 0
scalar FLScenario.node[63].nic.mac1609_4 SentAcknowledgements 0
scalar FLScenario.node[63].nic.mac1609_4 SNIRLostPackets 0
scalar FLScenario.node[63].nic.mac1609_4 RXTXLostPackets 0
scalar FLScenario.node[63].nic.mac1609_4 TotalLostPackets 0
scalar FLScenario.node[63].nic.mac1609_4 DroppedPacketsInMac 0
scalar FLScenario.node[63].nic.mac1609_4 TooLittleTime 0
scalar FLScenario.node[63].nic.mac1609_4 TimesIntoBackoff 0
scalar FLScenario.node[63].nic.mac1609_4 SlotsBackoff 0
scalar FLScenario.node[63].nic.mac1609_4 NumInternalContention 0
scalar FLScenario.node[63].nic.mac1609_4 totalBusyTime 0
scalar FLScenario.node[63].veinsmobility startTime 64
scalar FLScenario.node[63].veinsmobility totalTime 65
scalar FLScenario.node[63].veinsmobility stopTime 130
scalar FLScenario.node[63].veinsmobility minSpeed 1.5456526905531
scalar FLScenario.node[63].veinsmobility maxSpeed 13.122918764575
scalar FLScenario.node[63].veinsmobility totalDistance 780.1182283985
scalar FLScenario.node[63].veinsmobility totalCO2Emission 159.6628408748
scalar FLScenario.node[30].appl generatedWSMs 0
scalar FLScenario.node[30].appl receivedWSMs 0
scalar FLScenario.node[30].appl generatedBSMs 0
scalar FLScenario.node[30].appl receivedBSMs 0
scalar FLScenario.node[30].appl generatedWSAs 0
scalar FLScenario.node[30].appl receivedWSAs 0
scalar FLScenario.node[30].nic.phy80211p busyTime 0
scalar FLScenario.node[30].nic.mac1609_4 ReceivedUnicastPackets 0
scalar FLScenario.node[30].nic.mac1609_4 ReceivedBroadcasts 0
scalar FLScenario.node[30].nic.mac1609_4 SentPackets 0
scalar FLScenario.node[30].nic.mac1609_4 SentAcknowledgements 0
scalar FLScenario.node[30].nic.mac1609_4 SNIRLostPackets 0
scalar FLScenario.node[30].nic.mac1609_4 RXTXLostPackets 0
scalar FLScenario.node[30].nic.mac1609_4 TotalLostPackets 0
scalar FLScenario.node[30].nic.mac1609_4 DroppedPacketsInMac 0
scalar FLScenario.node[30].nic.mac1609_4 TooLittleTime 0
scalar FLScenario.node[30].nic.mac1609_4 TimesIntoBackoff 0
scalar FLScenario.node[30].nic.mac1609_4 SlotsBackoff 0
scalar FLScenario.node[30].nic.mac1609_4 NumInternalContention 0
scalar FLScenario.node[30].nic.mac1609_4 totalBusyTime 0
scalar FLScenario.node[30].veinsmobility startTime 32
scalar FLScenario.node[30].veinsmobility totalTime 98
scalar FLScenario.node[30].veinsmobility stopTime 131
scalar FLScenario.node[30].veinsmobility minSpeed 0
scalar FLScenario.node[30].veinsmobility maxSpeed 14.327982629364
scalar FLScenario.node[30].veinsmobility totalDistance 646.4731601726
scalar FLScenario.node[30].veinsmobility totalCO2Emission 248.43787436177
scalar FLScenario.node[44].appl generatedWSMs 0
scalar FLScenario.node[44].appl receivedWSMs 0
scalar FLScenario.node[44].appl generatedBSMs 0
scalar FLScenario.node[44].appl receivedBSMs 0
scalar FLScenario.node[44].appl generatedWSAs 0
scalar FLScenario.node[44].appl receivedWSAs 0
scalar FLScenario.node[44].nic.phy80211p busyTime 0
scalar FLScenario.node[44].nic.mac1609_4 ReceivedUnicastPackets 0
scalar FLScenario.node[44].nic.mac1609_4 ReceivedBroadcasts 0
scalar FLScenario.node[44].nic.mac1609_4 SentPackets 0
scalar FLScenario.node[44].nic.mac1609_4 SentAcknowledgements 0
scalar FLScenario.node[44].nic.mac1609_4 SNIRLostPackets 0
scalar FLScenario.node[44].nic.mac1609_4 RXTXLostPackets 0
scalar FLScenario.node[44].nic.mac1609_4 TotalLostPackets 0
scalar FLScenario.node[44].nic.mac1609_4 DroppedPacketsInMac 0
scalar FLScenario.node[44].nic.mac1609_4 TooLittleTime 0
scalar FLScenario.node[44].nic.mac1609_4 TimesIntoBackoff 0
scalar FLScenario.node[44].nic.mac1609_4 SlotsBackoff 0
scalar FLScenario.node[44].nic.mac1609_4 NumInternalContention 0
scalar FLScenario.node[44].nic.mac1609_4 totalBusyTime 0
scalar FLScenario.node[44].veinsmobility startTime 46
scalar FLScenario.node[44].veinsmobility totalTime 84
scalar FLScenario.node[44].veinsmobility stopTime 131
scalar FLScenario.node[44].veinsmobility minSpeed 0
scalar FLScenario.node[44].veinsmobility maxSpeed 12.251855745973
scalar FLScenario.node[44].veinsmobility totalDistance 522.20585300451
scalar FLScenario.node[44].veinsmobility totalCO2Emission 197.3568816621
scalar FLScenario.node[76].appl generatedWSMs 0
scalar FLScenario.node[76].appl receivedWSMs 0
scalar FLScenario.node[76].appl generatedBSMs 0
scalar FLScenario.node[76].appl receivedBSMs 0
scalar FLScenario.node[76].appl generatedWSAs 0
scalar FLScenario.node[76].appl receivedWSAs 0
scalar FLScenario.node[76].nic.phy80211p busyTime 0
scalar FLScenario.node[76].nic.mac1609_4 ReceivedUnicastPackets 0
scalar FLScenario.node[76].nic.mac1609_4 ReceivedBroadcasts 0
scalar FLScenario.node[76].nic.mac1609_4 SentPackets 0
scalar FLScenario.node[76].nic.mac1609_4 SentAcknowledgements 0
scalar FLScenario.node[76].nic.mac1609_4 SNIRLostPackets 0
scalar FLScenario.node[76].nic.mac1609_4 RXTXLostPackets 0
scalar FLScenario.node[76].nic.mac1609_4 TotalLostPackets 0
scalar FLScenario.node[76].nic.mac1609_4 DroppedPacketsInMac 0
scalar FLScenario.node[76].nic.mac1609_4 TooLittleTime 0
scalar FLScenario.node[76].nic.mac1609_4 TimesIntoBackoff 0
scalar FLScenario.node[76].nic.mac1609_4 SlotsBackoff 0
scalar FLScenario.node[76].nic.mac1609_4 NumInternalContention 0
scalar FLScenario.node[76].nic.mac1609_4 totalBusyTime 0
scalar FLScenario.node[76].veinsmobility startTime 77
scalar FLScenario.node[76].veinsmobility totalTime 54
scalar FLScenario.node[76].veinsmobility stopTime 132
scalar FLScenario.node[76].veinsmobility minSpeed 3.7692696901504
scalar FLScenario.node[76].veinsmobility maxSpeed 13.625665608522
scalar FLScenario.node[76].veinsmobility totalDistance 538.18811930681
scalar FLScenario.node[76].veinsmobility totalCO2Emission 189.70894359079
scalar FLScenario.node[80].appl generatedWSMs 0
scalar FLScenario.node[80].appl receivedWSMs 0
scalar FLScenario.node[80].appl generatedBSMs 0
scalar FLScenario.node[80].appl receivedBSMs 0
scalar FLScenario.node[80].appl generatedWSAs 0
scalar FLScenario.node[80].appl receivedWSAs 0
scalar FLScenario.node[80].nic.phy80211p busyTime 0
scalar FLScenario.node[80].nic.mac1609_4 ReceivedUnicastPackets 0
scalar FLScenario.node[80].nic.mac1609_4 ReceivedBroadcasts 0
scalar FLScenario.node[80].nic.mac1609_4 SentPackets 0
scalar FLScenario.node[80].nic.mac1609_4 SentAcknowledgements 0
scalar FLScenario.node[80].nic.mac1609_4 SNIRLostPackets 0
scalar FLScenario.node[80].nic.mac1609_4 RXTXLostPackets 0
scalar FLScenario.node[80].nic.mac1609_4 TotalLostPackets 0
scalar FLScenario.node[80].nic.mac1609_4 DroppedPacketsInMac 0
scalar FLScenario.node[80].nic.mac1609_4 TooLittleTime 0
scalar FLScenario.node[80].nic.mac1609_4 TimesIntoBackoff 0
scalar FLScenario.node[80].nic.mac1609_4 SlotsBackoff 0
scalar FLScenario.node[80].nic.mac1609_4 NumInternalContention 0
scalar FLScenario.node[80].nic.mac1609_4 totalBusyTime 0
scalar FLScenario.node[80].veinsmobility startTime 81
scalar FLScenario.node[80].veinsmobility totalTime 51
scalar FLScenario.node[80].veinsmobility stopTime 133
scalar FLScenario.node[80].veinsmobility minSpeed 0
scalar FLScenario.node[80].veinsmobility maxSpeed 12.196236290298
scalar FLScenario.node[80].veinsmobility totalDistance 355.66335965886
scalar FLScenario.node[80].veinsmobility totalCO2Emission 123.77728171787
scalar FLScenario.node[55].appl generatedWSMs 0
scalar FLScenario.node[55].appl receivedWSMs 0
scalar FLScenario.node[55].appl generatedBSMs 0
scalar FLScenario.node[55].appl receivedBSMs 0
scalar FLScenario.node[55].appl generatedWSAs 0
scalar FLScenario.node[55].appl receivedWSAs 0
scalar FLScenario.node[55].nic.phy80211p busyTime 0
scalar FLScenario.node[55].nic.mac1609_4 ReceivedUnicastPackets 0
scalar FLScenario.node[55].nic.mac1609_4 ReceivedBroadcasts 0
scalar FLScenario.node[55].nic.mac1609_4 SentPackets 0
scalar FLScenario.node[55].nic.mac1609_4 SentAcknowledgements 0
scalar FLScenario.node[55].nic.mac1609_4 SNIRLostPackets 0
scalar FLScenario.node[55].nic.mac1609_4 RXTXLostPackets 0
scalar FLScenario.node[55].nic.mac1609_4 TotalLostPackets 0
scalar FLScenario.node[55].nic.mac1609_4 DroppedPacketsInMac 0
scalar FLScenario.node[55].nic.mac1609_4 TooLittleTime 0
scalar FLScenario.node[55].nic.mac1609_4 TimesIntoBackoff 0
scalar FLScenario.node[55].nic.mac1609_4 SlotsBackoff 0
scalar FLScenario.node[55].nic.mac1609_4 NumInternalContention 0
scalar FLScenario.node[55].nic.mac1609_4 totalBusyTime 0
scalar FLScenario.node[55].veinsmobility startTime 56
scalar FLScenario.node[55].veinsmobility totalTime 80
scalar FLScenario.node[55].veinsmobility stopTime 137
scalar FLScenario.node[55].veinsmobility minSpeed 0
scalar FLScenario.node[55].veinsmobility maxSpeed 12.852850843029
scalar FLScenario.node[55].veinsmobility totalDistance 591.08880279515
scalar FLScenario.node[55].veinsmobility totalCO2Emission 204.1282064349
scalar FLScenario.node[17].appl generatedWSMs 0
scalar FLScenario.node[17].appl receivedWSMs 0
scalar FLScenario.node[17].appl generatedBSMs 0
scalar FLScenario.node[17].appl receivedBSMs 0
scalar FLScenario.node[17].appl generatedWSAs 0
scalar FLScenario.node[17].appl receivedWSAs 0
scalar FLScenario.node[17].nic.phy80211p busyTime 0
scalar FLScenario.node[17].nic.mac1609_4 ReceivedUnicastPackets 0
scalar FLScenario.node[17].nic.mac1609_4 ReceivedBroadcasts 0
scalar FLScenario.node[17].nic.mac1609_4 SentPackets 0
scalar FLScenario.node[17].nic.mac1609_4 SentAcknowledgements 0
scalar FLScenario.node[17].nic.mac1609_4 SNIRLostPackets 0
scalar FLScenario.node[17].nic.mac1609_4 RXTXLostPackets 0
scalar FLScenario.node[17].nic.mac1609_4 TotalLostPackets 0
scalar FLScenario.node[17].nic.mac1609_4 DroppedPacketsInMac 0
scalar FLScenario.node[17].nic.mac1609_4 TooLittleTime 0
scalar FLScenario.node[17].nic.mac1609_4 TimesIntoBackoff 0
scalar FLScenario.node[17].nic.mac1609_4 SlotsBackoff 0
scalar FLScenario.node[17].nic.mac1609_4 NumInternalContention 0
scalar FLScenario.node[17].nic.mac1609_4 totalBusyTime 0
scalar FLScenario.node[17].veinsmobility startTime 18
scalar FLScenario.node[17].veinsmobility totalTime 119
scalar FLScenario.node[17].veinsmobility stopTime 138
scalar FLScenario.node[17].veinsmobility minSpeed 0
scalar FLScenario.node[17].veinsmobility maxSpeed 10.042575094164
scalar FLScenario.node[17].veinsmobility totalDistance 575.04274410391
scalar FLScenario.node[17].veinsmobility totalCO2Emission 214.49868686395
scalar FLScenario.node[54].appl generatedWSMs 0
scalar FLScenario.node[54].appl receivedWSMs 0
scalar FLScenario.node[54].appl generatedBSMs 0
scalar FLScenario.node[54].appl receivedBSMs 0
scalar FLScenario.node[54].appl generatedWSAs 0
scalar FLScenario.node[54].appl receivedWSAs 0
scalar FLScenario.node[54].nic.phy80211p busyTime 0
scalar FLScenario.node[54].nic.mac1609_4 ReceivedUnicastPackets 0
scalar FLScenario.node[54].nic.mac1609_4 ReceivedBroadcasts 0
scalar FLScenario.node[54].nic.mac1609_4 SentPackets 0
scalar FLScenario.node[54].nic.mac1609_4 SentAcknowledgements 0
[...]
scalar FLScenario.node[61].nic.mac1609_4 SentAcknowledgements 0
scalar FLScenario.node[61].nic.mac1609_4 SNIRLostPackets 0
scalar FLScenario.node[61].nic.mac1609_4 RXTXLostPackets 0
scalar FLScenario.node[61].nic.mac1609_4 TotalLostPackets 0
scalar FLScenario.node[61].nic.mac1609_4 DroppedPacketsInMac 0
scalar FLScenario.node[61].nic.mac1609_4 TooLittleTime 0
scalar FLScenario.node[61].nic.mac1609_4 TimesIntoBackoff 0
scalar FLScenario.node[61].nic.mac1609_4 SlotsBackoff 0
scalar FLScenario.node[61].nic.mac1609_4 NumInternalContention 0
scalar FLScenario.node[61].nic.mac1609_4 totalBusyTime 0.00096
scalar FLScenario.node[61].veinsmobility startTime 62
scalar FLScenario.node[61].veinsmobility totalTime 143
scalar FLScenario.node[61].veinsmobility stopTime 206
scalar FLScenario.node[61].veinsmobility minSpeed 0.98310987674631
scalar FLScenario.node[61].veinsmobility maxSpeed 5.5550440673768
scalar FLScenario.node[61].veinsmobility totalDistance 731.41146757277
scalar FLScenario.node[61].veinsmobility totalCO2Emission 199.06077542668
scalar FLScenario.node[40].appl generatedWSMs 1
scalar FLScenario.node[40].appl receivedWSMs 3
scalar FLScenario.node[40].appl generatedBSMs 0
scalar FLScenario.node[40].appl receivedBSMs 0
scalar FLScenario.node[40].appl generatedWSAs 0
scalar FLScenario.node[40].appl receivedWSAs 0
scalar FLScenario.node[40].nic.phy80211p busyTime 4.1142857142857e-06
scalar FLScenario.node[40].nic.mac1609_4 ReceivedUnicastPackets 0
scalar FLScenario.node[40].nic.mac1609_4 ReceivedBroadcasts 3
scalar FLScenario.node[40].nic.mac1609_4 SentPackets 1
scalar FLScenario.node[40].nic.mac1609_4 SentAcknowledgements 0
scalar FLScenario.node[40].nic.mac1609_4 SNIRLostPackets 0
scalar FLScenario.node[40].nic.mac1609_4 RXTXLostPackets 0
scalar FLScenario.node[40].nic.mac1609_4 TotalLostPackets 0
scalar FLScenario.node[40].nic.mac1609_4 DroppedPacketsInMac 0
scalar FLScenario.node[40].nic.mac1609_4 TooLittleTime 0
scalar FLScenario.node[40].nic.mac1609_4 TimesIntoBackoff 1
scalar FLScenario.node[40].nic.mac1609_4 SlotsBackoff 2
scalar FLScenario.node[40].nic.mac1609_4 NumInternalContention 0
scalar FLScenario.node[40].nic.mac1609_4 totalBusyTime 0.000961
scalar FLScenario.node[40].veinsmobility startTime 42
scalar FLScenario.node[40].veinsmobility totalTime 174
scalar FLScenario.node[40].veinsmobility stopTime 217
scalar FLScenario.node[40].veinsmobility minSpeed 0
scalar FLScenario.node[40].veinsmobility maxSpeed 13.114593495386
scalar FLScenario.node[40].veinsmobility totalDistance 1206.1559137154
scalar FLScenario.node[40].veinsmobility totalCO2Emission 372.08158972939
scalar FLScenario.node[78].appl generatedWSMs 0
scalar FLScenario.node[78].appl receivedWSMs 4
scalar FLScenario.node[78].appl generatedBSMs 0
scalar FLScenario.node[78].appl receivedBSMs 0
scalar FLScenario.node[78].appl generatedWSAs 0
scalar FLScenario.node[78].appl receivedWSAs 0
scalar FLScenario.node[78].nic.phy80211p busyTime 6.8571428571429e-06
scalar FLScenario.node[78].nic.mac1609_4 ReceivedUnicastPackets 0
scalar FLScenario.node[78].nic.mac1609_4 ReceivedBroadcasts 4
scalar FLScenario.node[78].nic.mac1609_4 SentPackets 0
scalar FLScenario.node[78].nic.mac1609_4 SentAcknowledgements 0
scalar FLScenario.node[78].nic.mac1609_4 SNIRLostPackets 0
scalar FLScenario.node[78].nic.mac1609_4 RXTXLostPackets 0
scalar FLScenario.node[78].nic.mac1609_4 TotalLostPackets 0
scalar FLScenario.node[78].nic.mac1609_4 DroppedPacketsInMac 0
scalar FLScenario.node[78].nic.mac1609_4 TooLittleTime 0
scalar FLScenario.node[78].nic.mac1609_4 TimesIntoBackoff 0
scalar FLScenario.node[78].nic.mac1609_4 SlotsBackoff 0
scalar FLScenario.node[78].nic.mac1609_4 NumInternalContention 0
scalar FLScenario.node[78].nic.mac1609_4 totalBusyTime 0.00096
scalar FLScenario.node[78].veinsmobility startTime 79
scalar FLScenario.node[78].veinsmobility totalTime 139
scalar FLScenario.node[78].veinsmobility stopTime 219
scalar FLScenario.node[78].veinsmobility minSpeed 0
scalar FLScenario.node[78].veinsmobility maxSpeed 14.551516272721
scalar FLScenario.node[78].veinsmobility totalDistance 778.25570843322
scalar FLScenario.node[78].veinsmobility totalCO2Emission 329.02138670905
scalar FLScenario.node[97].appl generatedWSMs 0
scalar FLScenario.node[97].appl receivedWSMs 5
scalar FLScenario.node[97].appl generatedBSMs 0
scalar FLScenario.node[97].appl receivedBSMs 0
scalar FLScenario.node[97].appl generatedWSAs 0
scalar FLScenario.node[97].appl receivedWSAs 0
scalar FLScenario.node[97].nic.phy80211p busyTime 9.8360655737705e-06
scalar FLScenario.node[97].nic.mac1609_4 ReceivedUnicastPackets 0
scalar FLScenario.node[97].nic.mac1609_4 ReceivedBroadcasts 5
scalar FLScenario.node[97].nic.mac1609_4 SentPackets 0
scalar FLScenario.node[97].nic.mac1609_4 SentAcknowledgements 0
scalar FLScenario.node[97].nic.mac1609_4 SNIRLostPackets 0
scalar FLScenario.node[97].nic.mac1609_4 RXTXLostPackets 0
scalar FLScenario.node[97].nic.mac1609_4 TotalLostPackets 0
scalar FLScenario.node[97].nic.mac1609_4 DroppedPacketsInMac 0
scalar FLScenario.node[97].nic.mac1609_4 TooLittleTime 0
scalar FLScenario.node[97].nic.mac1609_4 TimesIntoBackoff 0
scalar FLScenario.node[97].nic.mac1609_4 SlotsBackoff 0
scalar FLScenario.node[97].nic.mac1609_4 NumInternalContention 0
scalar FLScenario.node[97].nic.mac1609_4 totalBusyTime 0.0012
scalar FLScenario.node[97].veinsmobility startTime 99
scalar FLScenario.node[97].veinsmobility totalTime 121
scalar FLScenario.node[97].veinsmobility stopTime 221
scalar FLScenario.node[97].veinsmobility minSpeed 0
scalar FLScenario.node[97].veinsmobility maxSpeed 14.592815858299
scalar FLScenario.node[97].veinsmobility totalDistance 779.18594279858
scalar FLScenario.node[97].veinsmobility totalCO2Emission 299.71353426265
scalar FLScenario.node[72].appl generatedWSMs 1
scalar FLScenario.node[72].appl receivedWSMs 5
scalar FLScenario.node[72].appl generatedBSMs 0
scalar FLScenario.node[72].appl receivedBSMs 0
scalar FLScenario.node[72].appl generatedWSAs 0
scalar FLScenario.node[72].appl receivedWSAs 0
scalar FLScenario.node[72].nic.phy80211p busyTime 7.7922077922078e-06
scalar FLScenario.node[72].nic.mac1609_4 ReceivedUnicastPackets 0
scalar FLScenario.node[72].nic.mac1609_4 ReceivedBroadcasts 5
scalar FLScenario.node[72].nic.mac1609_4 SentPackets 1
scalar FLScenario.node[72].nic.mac1609_4 SentAcknowledgements 0
scalar FLScenario.node[72].nic.mac1609_4 SNIRLostPackets 0
scalar FLScenario.node[72].nic.mac1609_4 RXTXLostPackets 0
scalar FLScenario.node[72].nic.mac1609_4 TotalLostPackets 0
scalar FLScenario.node[72].nic.mac1609_4 DroppedPacketsInMac 0
scalar FLScenario.node[72].nic.mac1609_4 TooLittleTime 0
scalar FLScenario.node[72].nic.mac1609_4 TimesIntoBackoff 1
scalar FLScenario.node[72].nic.mac1609_4 SlotsBackoff 1
scalar FLScenario.node[72].nic.mac1609_4 NumInternalContention 0
scalar FLScenario.node[72].nic.mac1609_4 totalBusyTime 0.001441
scalar FLScenario.node[72].veinsmobility startTime 74
scalar FLScenario.node[72].veinsmobility totalTime 153
scalar FLScenario.node[72].veinsmobility stopTime 228
scalar FLScenario.node[72].veinsmobility minSpeed 2.0215051173232
scalar FLScenario.node[72].veinsmobility maxSpeed 11.473064605436
scalar FLScenario.node[72].veinsmobility totalDistance 1161.1149573909
scalar FLScenario.node[72].veinsmobility totalCO2Emission 325.06714117378
scalar FLScenario.node[33].appl generatedWSMs 1
scalar FLScenario.node[33].appl receivedWSMs 6
scalar FLScenario.node[33].appl generatedBSMs 0
scalar FLScenario.node[33].appl receivedBSMs 0
scalar FLScenario.node[33].appl generatedWSAs 0
scalar FLScenario.node[33].appl receivedWSAs 0
scalar FLScenario.node[33].nic.phy80211p busyTime 7.0588235294118e-06
scalar FLScenario.node[33].nic.mac1609_4 ReceivedUnicastPackets 0
scalar FLScenario.node[33].nic.mac1609_4 ReceivedBroadcasts 6
scalar FLScenario.node[33].nic.mac1609_4 SentPackets 1
scalar FLScenario.node[33].nic.mac1609_4 SentAcknowledgements 0
scalar FLScenario.node[33].nic.mac1609_4 SNIRLostPackets 0
scalar FLScenario.node[33].nic.mac1609_4 RXTXLostPackets 0
scalar FLScenario.node[33].nic.mac1609_4 TotalLostPackets 0
scalar FLScenario.node[33].nic.mac1609_4 DroppedPacketsInMac 0
scalar FLScenario.node[33].nic.mac1609_4 TooLittleTime 0
scalar FLScenario.node[33].nic.mac1609_4 TimesIntoBackoff 1
scalar FLScenario.node[33].nic.mac1609_4 SlotsBackoff 0
scalar FLScenario.node[33].nic.mac1609_4 NumInternalContention 0
scalar FLScenario.node[33].nic.mac1609_4 totalBusyTime 0.001681
scalar FLScenario.node[33].veinsmobility startTime 34
scalar FLScenario.node[33].veinsmobility totalTime 203
scalar FLScenario.node[33].veinsmobility stopTime 238
scalar FLScenario.node[33].veinsmobility minSpeed 0
scalar FLScenario.node[33].veinsmobility maxSpeed 5.5483494811277
scalar FLScenario.node[33].veinsmobility totalDistance 721.40267299082
scalar FLScenario.node[33].veinsmobility totalCO2Emission 262.03764323321
scalar FLScenario.node[77].appl generatedWSMs 1
scalar FLScenario.node[77].appl receivedWSMs 6
scalar FLScenario.node[77].appl generatedBSMs 0
scalar FLScenario.node[77].appl receivedBSMs 0
scalar FLScenario.node[77].appl generatedWSAs 0
scalar FLScenario.node[77].appl receivedWSAs 0
scalar FLScenario.node[77].nic.phy80211p busyTime 8.944099378882e-06
scalar FLScenario.node[77].nic.mac1609_4 ReceivedUnicastPackets 0
scalar FLScenario.node[77].nic.mac1609_4 ReceivedBroadcasts 6
scalar FLScenario.node[77].nic.mac1609_4 SentPackets 1
scalar FLScenario.node[77].nic.mac1609_4 SentAcknowledgements 0
scalar FLScenario.node[77].nic.mac1609_4 SNIRLostPackets 0
scalar FLScenario.node[77].nic.mac1609_4 RXTXLostPackets 0
scalar FLScenario.node[77].nic.mac1609_4 TotalLostPackets 0
scalar FLScenario.node[77].nic.mac1609_4 DroppedPacketsInMac 0
scalar FLScenario.node[77].nic.mac1609_4 TooLittleTime 0
scalar FLScenario.node[77].nic.mac1609_4 TimesIntoBackoff 1
scalar FLScenario.node[77].nic.mac1609_4 SlotsBackoff 0
scalar FLScenario.node[77].nic.mac1609_4 NumInternalContention 0
scalar FLScenario.node[77].nic.mac1609_4 totalBusyTime 0.001681
scalar FLScenario.node[77].veinsmobility startTime 78
scalar FLScenario.node[77].veinsmobility totalTime 160
scalar FLScenario.node[77].veinsmobility stopTime 239
scalar FLScenario.node[77].veinsmobility minSpeed 0
scalar FLScenario.node[77].veinsmobility maxSpeed 5.5552026974089
scalar FLScenario.node[77].veinsmobility totalDistance 770.96302242618
scalar FLScenario.node[77].veinsmobility totalCO2Emission 222.29869660275
scalar FLScenario.node[89].appl generatedWSMs 1
scalar FLScenario.node[89].appl receivedWSMs 8
scalar FLScenario.node[89].appl generatedBSMs 0
scalar FLScenario.node[89].appl receivedBSMs 0
scalar FLScenario.node[89].appl generatedWSAs 0
scalar FLScenario.node[89].appl receivedWSAs 0
scalar FLScenario.node[89].nic.phy80211p busyTime 1.28e-05
scalar FLScenario.node[89].nic.mac1609_4 ReceivedUnicastPackets 0
scalar FLScenario.node[89].nic.mac1609_4 ReceivedBroadcasts 8
scalar FLScenario.node[89].nic.mac1609_4 SentPackets 0
scalar FLScenario.node[89].nic.mac1609_4 SentAcknowledgements 0
scalar FLScenario.node[89].nic.mac1609_4 SNIRLostPackets 0
scalar FLScenario.node[89].nic.mac1609_4 RXTXLostPackets 0
scalar FLScenario.node[89].nic.mac1609_4 TotalLostPackets 0
scalar FLScenario.node[89].nic.mac1609_4 DroppedPacketsInMac 0
scalar FLScenario.node[89].nic.mac1609_4 TooLittleTime 0
scalar FLScenario.node[89].nic.mac1609_4 TimesIntoBackoff 0
scalar FLScenario.node[89].nic.mac1609_4 SlotsBackoff 0
scalar FLScenario.node[89].nic.mac1609_4 NumInternalContention 0
scalar FLScenario.node[89].nic.mac1609_4 totalBusyTime 0.00192
scalar FLScenario.node[89].veinsmobility startTime 90
scalar FLScenario.node[89].veinsmobility totalTime 149
scalar FLScenario.node[89].veinsmobility stopTime 240
scalar FLScenario.node[89].veinsmobility minSpeed 0
scalar FLScenario.node[89].veinsmobility maxSpeed 14.07371344211
scalar FLScenario.node[89].veinsmobility totalDistance 816.7878493589
scalar FLScenario.node[89].veinsmobility totalCO2Emission 320.04662412585
scalar FLScenario.node[69].appl generatedWSMs 1
scalar FLScenario.node[69].appl receivedWSMs 7
scalar FLScenario.node[69].appl generatedBSMs 0
scalar FLScenario.node[69].appl receivedBSMs 0
scalar FLScenario.node[69].appl generatedWSAs 0
scalar FLScenario.node[69].appl receivedWSAs 0
scalar FLScenario.node[69].nic.phy80211p busyTime 9.7109826589595e-06
scalar FLScenario.node[69].nic.mac1609_4 ReceivedUnicastPackets 0
scalar FLScenario.node[69].nic.mac1609_4 ReceivedBroadcasts 7
scalar FLScenario.node[69].nic.mac1609_4 SentPackets 1
scalar FLScenario.node[69].nic.mac1609_4 SentAcknowledgements 0
scalar FLScenario.node[69].nic.mac1609_4 SNIRLostPackets 0
scalar FLScenario.node[69].nic.mac1609_4 RXTXLostPackets 0
scalar FLScenario.node[69].nic.mac1609_4 TotalLostPackets 0
scalar FLScenario.node[69].nic.mac1609_4 DroppedPacketsInMac 0
scalar FLScenario.node[69].nic.mac1609_4 TooLittleTime 0
scalar FLScenario.node[69].nic.mac1609_4 TimesIntoBackoff 1
scalar FLScenario.node[69].nic.mac1609_4 SlotsBackoff 2
scalar FLScenario.node[69].nic.mac1609_4 NumInternalContention 0
scalar FLScenario.node[69].nic.mac1609_4 totalBusyTime 0.001921
scalar FLScenario.node[69].veinsmobility startTime 70
scalar FLScenario.node[69].veinsmobility totalTime 172
scalar FLScenario.node[69].veinsmobility stopTime 243
scalar FLScenario.node[69].veinsmobility minSpeed 2.0614944675704
scalar FLScenario.node[69].veinsmobility maxSpeed 16.335516760713
scalar FLScenario.node[69].veinsmobility totalDistance 1089.5435644274
scalar FLScenario.node[69].veinsmobility totalCO2Emission 363.77863564188
scalar FLScenario.node[99].appl generatedWSMs 0
scalar FLScenario.node[99].appl receivedWSMs 8
scalar FLScenario.node[99].appl generatedBSMs 0
scalar FLScenario.node[99].appl receivedBSMs 0
scalar FLScenario.node[99].appl generatedWSAs 0
scalar FLScenario.node[99].appl receivedWSAs 0
scalar FLScenario.node[99].nic.phy80211p busyTime 1.3714285714286e-05
scalar FLScenario.node[99].nic.mac1609_4 ReceivedUnicastPackets 0
scalar FLScenario.node[99].nic.mac1609_4 ReceivedBroadcasts 8
scalar FLScenario.node[99].nic.mac1609_4 SentPackets 0
scalar FLScenario.node[99].nic.mac1609_4 SentAcknowledgements 0
scalar FLScenario.node[99].nic.mac1609_4 SNIRLostPackets 0
scalar FLScenario.node[99].nic.mac1609_4 RXTXLostPackets 0
scalar FLScenario.node[99].nic.mac1609_4 TotalLostPackets 0
scalar FLScenario.node[99].nic.mac1609_4 DroppedPacketsInMac 0
scalar FLScenario.node[99].nic.mac1609_4 TooLittleTime 0
scalar FLScenario.node[99].nic.mac1609_4 TimesIntoBackoff 0
scalar FLScenario.node[99].nic.mac1609_4 SlotsBackoff 0
scalar FLScenario.node[99].nic.mac1609_4 NumInternalContention 0
scalar FLScenario.node[99].nic.mac1609_4 totalBusyTime 0.00192
scalar FLScenario.node[99].veinsmobility startTime 103
scalar FLScenario.node[99].veinsmobility totalTime 139
scalar FLScenario.node[99].veinsmobility stopTime 243
scalar FLScenario.node[99].veinsmobility minSpeed 1.6589153586421
scalar FLScenario.node[99].veinsmobility maxSpeed 11.061033804852
scalar FLScenario.node[99].veinsmobility totalDistance 968.22705569697
scalar FLScenario.node[99].veinsmobility totalCO2Emission 270.80908043966
scalar FLScenario.node[88].appl generatedWSMs 1
scalar FLScenario.node[88].appl receivedWSMs 8
scalar FLScenario.node[88].appl generatedBSMs 0
scalar FLScenario.node[88].appl receivedBSMs 0
scalar FLScenario.node[88].appl generatedWSAs 0
scalar FLScenario.node[88].appl receivedWSAs 0
scalar FLScenario.node[88].nic.phy80211p busyTime 1.1228070175439e-05
scalar FLScenario.node[88].nic.mac1609_4 ReceivedUnicastPackets 0
scalar FLScenario.node[88].nic.mac1609_4 ReceivedBroadcasts 8
scalar FLScenario.node[88].nic.mac1609_4 SentPackets 1
scalar FLScenario.node[88].nic.mac1609_4 SentAcknowledgements 0
scalar FLScenario.node[88].nic.mac1609_4 SNIRLostPackets 0
scalar FLScenario.node[88].nic.mac1609_4 RXTXLostPackets 0
scalar FLScenario.node[88].nic.mac1609_4 TotalLostPackets 0
scalar FLScenario.node[88].nic.mac1609_4 DroppedPacketsInMac 0
scalar FLScenario.node[88].nic.mac1609_4 TooLittleTime 0
scalar FLScenario.node[88].nic.mac1609_4 TimesIntoBackoff 1
scalar FLScenario.node[88].nic.mac1609_4 SlotsBackoff 3
scalar FLScenario.node[88].nic.mac1609_4 NumInternalContention 0
scalar FLScenario.node[88].nic.mac1609_4 totalBusyTime 0.002161
scalar FLScenario.node[88].veinsmobility startTime 89
scalar FLScenario.node[88].veinsmobility totalTime 170
scalar FLScenario.node[88].veinsmobility stopTime 260
scalar FLScenario.node[88].veinsmobility minSpeed 0.73709409032017
scalar FLScenario.node[88].veinsmobility maxSpeed 5.5486183379363
scalar FLScenario.node[88].veinsmobility totalDistance 868.88735466138
scalar FLScenario.node[88].veinsmobility totalCO2Emission 240.35532357134
scalar FLScenario.node[2].appl generatedWSMs 1
scalar FLScenario.node[2].appl receivedWSMs 8
scalar FLScenario.node[2].appl generatedBSMs 0
scalar FLScenario.node[2].appl receivedBSMs 0
scalar FLScenario.node[2].appl generatedWSAs 0
scalar FLScenario.node[2].appl receivedWSAs 0
scalar FLScenario.node[2].nic.phy80211p busyTime 6.9565217391304e-06
scalar FLScenario.node[2].nic.mac1609_4 ReceivedUnicastPackets 0
scalar FLScenario.node[2].nic.mac1609_4 ReceivedBroadcasts 8
scalar FLScenario.node[2].nic.mac1609_4 SentPackets 1
scalar FLScenario.node[2].nic.mac1609_4 SentAcknowledgements 0
scalar FLScenario.node[2].nic.mac1609_4 SNIRLostPackets 0
scalar FLScenario.node[2].nic.mac1609_4 RXTXLostPackets 0
scalar FLScenario.node[2].nic.mac1609_4 TotalLostPackets 0
scalar FLScenario.node[2].nic.mac1609_4 DroppedPacketsInMac 0
scalar FLScenario.node[2].nic.mac1609_4 TooLittleTime 0
scalar FLScenario.node[2].nic.mac1609_4 TimesIntoBackoff 1
scalar FLScenario.node[2].nic.mac1609_4 SlotsBackoff 3
scalar FLScenario.node[2].nic.mac1609_4 NumInternalContention 0
scalar FLScenario.node[2].nic.mac1609_4 totalBusyTime 0.002161
scalar FLScenario.node[2].veinsmobility startTime 3
scalar FLScenario.node[2].veinsmobility totalTime 275
scalar FLScenario.node[2].veinsmobility stopTime 279
scalar FLScenario.node[2].veinsmobility minSpeed 0
scalar FLScenario.node[2].veinsmobility maxSpeed 5.5489455411728
scalar FLScenario.node[2].veinsmobility totalDistance 1346.8066507858
scalar FLScenario.node[2].veinsmobility totalCO2Emission 378.34802925404
scalar FLScenario.node[94].appl generatedWSMs 1
scalar FLScenario.node[94].appl receivedWSMs 8
scalar FLScenario.node[94].appl generatedBSMs 0
scalar FLScenario.node[94].appl receivedBSMs 0
scalar FLScenario.node[94].appl generatedWSAs 0
scalar FLScenario.node[94].appl receivedWSAs 0
scalar FLScenario.node[94].nic.phy80211p busyTime 9.7959183673469e-06
scalar FLScenario.node[94].nic.mac1609_4 ReceivedUnicastPackets 0
scalar FLScenario.node[94].nic.mac1609_4 ReceivedBroadcasts 8
scalar FLScenario.node[94].nic.mac1609_4 SentPackets 1
scalar FLScenario.node[94].nic.mac1609_4 SentAcknowledgements 0
scalar FLScenario.node[94].nic.mac1609_4 SNIRLostPackets 0
scalar FLScenario.node[94].nic.mac1609_4 RXTXLostPackets 0
scalar FLScenario.node[94].nic.mac1609_4 TotalLostPackets 0
scalar FLScenario.node[94].nic.mac1609_4 DroppedPacketsInMac 0
scalar FLScenario.node[94].nic.mac1609_4 TooLittleTime 0
scalar FLScenario.node[94].nic.mac1609_4 TimesIntoBackoff 1
scalar FLScenario.node[94].nic.mac1609_4 SlotsBackoff 0
scalar FLScenario.node[94].nic.mac1609_4 NumInternalContention 0
scalar FLScenario.node[94].nic.mac1609_4 totalBusyTime 0.002161
scalar FLScenario.node[94].veinsmobility startTime 96
scalar FLScenario.node[94].veinsmobility totalTime 195
scalar FLScenario.node[94].veinsmobility stopTime 292
scalar FLScenario.node[94].veinsmobility minSpeed 0
scalar FLScenario.node[94].veinsmobility maxSpeed 5.5533727825205
scalar FLScenario.node[94].veinsmobility totalDistance 900.83987759059
scalar FLScenario.node[94].veinsmobility totalCO2Emission 270.95641882531
scalar FLScenario.manager roiArea 0

