version 2
run Default-0-20220610-22:10:08-1100
attr configname Default
attr datetime 20220610-22:10:08
attr experiment Default
attr inifile omnetpp.ini
attr iterationvars ""
attr iterationvarsf ""
attr measurement ""
attr network FLScenario
attr processid 1100
attr repetition 0
attr replication #0
attr resultdir results
attr runnumber 0
attr seedset 0
param *.playgroundSizeX 2500m
param *.playgroundSizeY 2500m
param *.playgroundSizeZ 50m
param *.annotations.draw true
param *.manager.updateInterval 1s
param *.manager.host "\"localhost\""
param *.manager.port 9999
param *.manager.autoShutdown true
param *.manager.launchConfig "xmldoc(\"eight.launchd.xml\")"
param *.connectionManager.sendDirect true
param *.connectionManager.maxInterfDist 2600m
param *.connectionManager.drawMaxIntfDist false
param *.**.nic.mac1609_4.useServiceChannel false
param *.**.nic.mac1609_4.txPower 20mW
param *.**.nic.mac1609_4.bitrate 6Mbps
param *.**.nic.phy80211p.minPowerLevel -110dBm
param *.**.nic.phy80211p.useNoiseFloor true
param *.**.nic.phy80211p.noiseFloor -98dBm
param *.**.nic.phy80211p.decider "xmldoc(\"config.xml\")"
param *.**.nic.phy80211p.analogueModels "xmldoc(\"config.xml\")"
param *.**.nic.phy80211p.usePropagationDelay true
param *.**.nic.phy80211p.antenna "xmldoc(\"antenna.xml\", \"/root/Antenna[@id='monopole']\")"
param *.node[*].nic.phy80211p.antennaOffsetY "0 m"
param *.node[*].nic.phy80211p.antennaOffsetZ "1.895 m"
param *.node[*].applType "\"CarAppLayer\""
param *.node[*].appl.headerLength "80 bit"
param *.node[*].appl.sendBeacons false
param *.node[*].appl.dataOnSch false
param *.node[*].appl.beaconInterval 1s
param *.node[*].veinsmobility.x 0
param *.node[*].veinsmobility.y 0
param *.node[*].veinsmobility.z 0
param *.node[*].veinsmobility.setHostSpeed false
param *.node[*].veinsmobility.accidentCount 0
param *.node[*].veinsmobility.accidentStart 20s
param *.node[*].veinsmobility.accidentDuration 30s

vector 0 FLScenario.node[0].veinsmobility posx ETV
vector 1 FLScenario.node[0].veinsmobility posy ETV
vector 2 FLScenario.node[0].veinsmobility speed ETV
vector 3 FLScenario.node[1].veinsmobility posx ETV
vector 4 FLScenario.node[1].veinsmobility posy ETV
vector 5 FLScenario.node[0].veinsmobility acceleration ETV
vector 6 FLScenario.node[0].veinsmobility co2emission ETV
vector 7 FLScenario.node[1].veinsmobility speed ETV
vector 8 FLScenario.node[1].veinsmobility acceleration ETV
vector 9 FLScenario.node[1].veinsmobility co2emission ETV
vector 10 FLScenario.node[2].veinsmobility posx ETV
vector 11 FLScenario.node[2].veinsmobility posy ETV
vector 12 FLScenario.node[2].veinsmobility speed ETV
vector 13 FLScenario.node[2].veinsmobility acceleration ETV
vector 14 FLScenario.node[2].veinsmobility co2emission ETV
vector 15 FLScenario.node[3].veinsmobility posx ETV
vector 16 FLScenario.node[3].veinsmobility posy ETV
vector 17 FLScenario.node[3].veinsmobility speed ETV
vector 18 FLScenario.node[3].veinsmobility acceleration ETV
vector 19 FLScenario.node[3].veinsmobility co2emission ETV
vector 20 FLScenario.node[4].veinsmobility posx ETV
vector 21 FLScenario.node[4].veinsmobility posy ETV
vector 22 FLScenario.node[4].veinsmobility speed ETV
vector 23 FLScenario.node[4].veinsmobility acceleration ETV
vector 24 FLScenario.node[4].veinsmobility co2emission ETV
vector 25 FLScenario.node[1].appl Delay ETV
vector 26 FLScenario.node[2].appl Delay ETV
vector 27 FLScenario.node[3].appl Delay ETV
vector 28 FLScenario.node[4].appl Delay ETV
0	2	1	171.24229591837
0	3	2	171.24229591837
0	4	3	167.94153299217
0	5	4	163.0772374018
0	6	5	156.46769656796
0	7	6	149.33237143613
0	8	7	140.18635349557
0	9	8	130.59151430753
0	10	9	121.11902800902
0	11	10	113.92991318868
0	12	11	107.82164850307
0	13	12	100.24723846963
0	14	13	92.548692687093
0	15	14	86.046474271122
0	16	15	83.790500571095
0	17	16	81.485167180552
0	18	17	78.359046842544
0	19	18	75.928284701477
0	20	19	74.19288075735
0	21	20	74.803164979883
0	22	21	78.449364454626
0	23	22	83.139120276958
0	24	23	86.873786278932
0	25	24	89.83476372476
0	26	25	91.840651350229
0	27	26	94.624523828854
0	28	27	99.999161016625
0	29	28	108.06394106624
0	30	29	116.87285384156
0	31	30	128.36658458959
0	32	31	140.58989848115
0	33	32	154.15166662113
0	34	33	167.56486426826
0	35	34	179.89434562989
0	36	35	192.14356718814
0	37	36	205.26502186626
0	38	37	216.23755069544
0	39	38	225.06115367571
0	40	39	229.91921420032
0	41	40	233.74969770489
0	42	41	237.73382733197
0	43	42	241.9272520884
0	44	43	245.66646735613
0	45	44	249.08349534877
0	46	45	251.90983840187
0	48	46	254.08737957536
0	81	47	253.73172793361
0	83	48	251.32578471391
1	2	1	21.431071428571
1	3	2	21.431071428571
1	4	3	22.167833461759
1	5	4	23.253591024271
1	6	5	24.728904111594
1	7	6	26.321577311433
1	8	7	28.36305648583
1	9	8	30.504716879606
1	10	9	32.619066931598
1	11	10	36.746647301327
1	12	11	42.328762673507
1	13	12	49.250733619278
1	14	13	56.286147598202
1	15	14	62.368120809068
1	16	15	68.911587419872
1	17	16	75.83150157009
1	18	17	85.215170088934
1	19	18	92.511583442766
1	20	19	97.720741631586
1	21	20	103.95191948877
1	22	21	111.51705802761
1	23	22	121.24736838365
1	24	23	128.99605736706
1	25	24	135.13949651328
1	26	25	139.30131428687
1	27	26	144.59263494899
1	28	27	147.30060246884
1	29	28	150.13339727493
1	30	29	153.22757246678
1	31	30	157.26480355868
1	32	31	161.55830442196
1	33	32	166.32194411356
1	34	33	169.5478379497
1	35	34	166.90150255746
1	36	35	164.2074559572
1	37	36	161.32157376478
1	38	37	158.90831804499
1	39	38	156.96768879782
1	40	39	152.7521973423
1	41	40	144.6229075789
1	42	41	136.16754048106
1	43	42	127.26799427356
1	44	43	119.33239962532
1	45	44	112.08057080303
1	46	45	106.08233020965
1	48	46	101.46101722139
1	81	47	94.450297093211
1	83	48	86.576559791121
2	3	2	3.381858512992
2	4	3	4.9838052049745
2	5	4	6.7719289254164
2	6	5	7.3106310812291
2	7	6	9.3707240791991
2	8	7	9.8305722992984
2	9	8	9.7052133534082
2	10	9	7.6964675873496
2	11	10	8.2745200620011
2	12	11	10.260624089719
2	13	12	10.428783755208
2	14	13	8.4843583350247
2	15	14	6.5371123504537
2	16	15	7.2936991057303
2	17	16	9.8905352289966
2	18	17	7.6905352289966
2	19	18	5.4905352289966
2	20	19	6.6299376625985
2	21	20	8.3988318935454
2	22	21	10.802609963166
2	23	22	8.6026099631663
2	24	23	6.8204583924597
2	25	24	4.6204583924597
2	26	25	5.9856749137731
2	27	26	6.1010704795232
2	28	27	8.5480138339669
2	29	28	9.3367342695462
2	30	29	12.182423926458
2	31	30	12.955722983038
2	32	31	14.374376109495
2	33	32	13.272476089653
2	34	33	12.426186406519
2	35	34	12.540352400535
2	36	35	13.433316140842
2	37	36	11.233316140842
2	38	37	9.0333161408424
2	39	38	6.8333161408424
2	40	39	8.9866102451103
2	41	40	9.3470759191893
2	42	41	9.8380984628217
2	43	42	8.772487910077
2	44	43	8.0166116705019
2	45	44	6.6308191659945
2	46	45	5.1086798299654
2	48	46	6.1606085558739
2	81	47	8.2337039694973
2	83	48	9.4796752323015
3	4	3	171.24229591837
3	5	4	171.24229591837
3	6	5	169.56883242928
3	7	6	166.02233383532
3	8	7	161.48218330852
3	9	8	156.55401535
3	10	9	150.06402051162
3	11	10	142.16469139338
3	12	11	132.04159294382
3	13	12	120.16272122741
3	14	13	110.79282174855
3	15	14	102.59844017793
3	16	15	92.635576310338
3	17	16	87.102250464798
3	18	17	83.624197360317
3	19	18	80.841502452776
3	20	19	78.754165742177
3	21	20	77.362187228519
3	22	21	76.732598357441
3	23	22	77.267705783395
3	24	23	78.368072905746
3	25	24	80.490869006622
3	26	25	84.065187768776
3	27	26	87.678507278672
3	28	27	90.782240155668
3	29	28	92.930883212305
3	30	29	94.124436448582
3	31	30	94.932152882746
3	32	31	96.914208370993
3	33	32	102.26823662358
3	34	33	110.06004687397
3	35	34	118.70686955145
3	36	35	128.78361485673
3	37	36	140.84740926724
3	38	37	153.3333182455
3	39	38	167.95796337792
3	40	39	182.27779037324
3	41	40	194.29432639418
3	42	41	206.50900317539
3	43	42	216.57475410768
3	44	43	224.49157919104
3	45	44	226.38497229598
3	46	45	229.57790829237
3	48	46	234.25424230337
3	81	47	238.72742058312
3	83	48	242.2628633341
4	4	3	21.431071428571
4	5	4	21.431071428571
4	6	5	21.804604575377
4	7	6	22.596217173192
4	8	7	23.60962243976
4	9	8	24.709636929196
4	10	9	26.158266200491
4	11	10	31.197719171473
4	12	11	33.457292113429
4	13	12	36.108770536276
4	14	13	43.947461686046
4	15	14	51.436001506306
4	16	15	60.540691366461
4	17	16	69.0758593858
4	18	17	79.515923713005
4	19	18	87.868732875198
4	20	19	94.134286872379
4	21	20	98.312585704548
4	22	21	100.41748090218
4	23	22	101.70009815631
4	24	23	103.9837247784
4	25	24	108.38923053258
4	26	25	115.807127083
4	27	26	123.30596311627
4	28	27	129.74723792519
4	29	28	134.20638468251
4	30	29	136.68340338825
4	31	30	138.35968279963
4	32	31	142.23973862116
4	33	32	148.09762675896
4	34	33	150.83453954164
4	35	34	153.87177976633
4	36	35	157.41128755049
4	37	36	161.64875638877
4	38	37	166.03449510518
4	39	38	169.47413186664
4	40	39	166.37729690266
4	41	40	163.73442626308
4	42	41	161.047977308
4	43	42	158.83415482556
4	44	43	157.09295881574
4	45	44	152.74944748495
4	46	45	145.97320060133
4	48	46	136.04879441073
4	81	47	126.55553791818
4	83	48	119.05240194846
5	4	3	1.6019466919824
5	5	4	1.7881237204419
5	6	5	0.53870215581264
5	7	6	2.0600929979701
5	8	7	0.45984822009923
5	9	8	-0.12535894589016
5	10	9	-2.0087457660586
5	11	10	0.57805247465149
5	12	11	1.9861040277174
5	13	12	0.16815966548991
5	14	13	-1.9444254201837
5	15	14	-1.9472459845711
5	16	15	0.75658675527666
5	17	16	2.5968361232663
5	18	17	-2.2
5	19	18	-2.2
5	20	19	1.1394024336019
5	21	20	1.7688942309469
5	22	21	2.403778069621
5	23	22	-2.2
5	24	23	-1.7821515707066
5	25	24	-2.2
5	26	25	1.3652165213134
5	27	26	0.11539556575008
5	28	27	2.4469433544436
5	29	28	0.78872043557931
5	30	29	2.8456896569114
5	31	30	0.77329905658085
5	32	31	1.4186531264568
5	33	32	-1.1019000198426
5	34	33	-0.84628968313336
5	35	34	0.11416599401596
5	36	35	0.89296374030721
5	37	36	-2.2
5	38	37	-2.2
5	39	38	-2.2
5	40	39	2.1532941042678
5	41	40	0.36046567407902
5	42	41	0.49102254363243
5	43	42	-1.0656105527447
5	44	43	-0.7558762395751
5	45	44	-1.3857925045075
5	46	45	-1.5221393360291
5	48	46	1.0519287259085
5	81	47	2.0730954136234
5	83	48	1.2459712628042
6	4	3	3.2859477348878
6	5	4	4.3836467506079
6	6	5	2.4478779396277
6	7	6	6.2904571748034
6	8	7	2.7614469832265
6	9	8	1.3694181060164
6	10	9	0.973
6	11	10	2.7142276591815
6	12	11	6.61602282113
6	13	12	2.1405052807173
6	14	13	0.973
6	15	14	0.973
6	16	15	2.8276062142868
6	17	16	7.8663656142152
6	18	17	0.973
6	19	18	0.973
6	20	19	3.2773040756658
6	21	20	5.1503416566172
6	22	21	8.0056386150383
6	23	22	0.973
6	24	23	0.973
6	25	24	0.973
6	26	25	3.3879501069696
6	27	26	1.5949677230874
6	28	27	6.6209330550723
6	29	28	3.4103352681916
6	30	29	10.219545043945
6	31	30	4.3503680234598
6	32	31	6.9923249700409
6	33	32	0.973
6	34	33	0.973
6	35	34	2.2421624236625
6	36	35	4.8728652667918
6	37	36	0.973
6	38	37	0.973
6	39	38	0.973
6	40	39	6.2741045353894
6	41	40	2.4483439563565
6	42	41	2.8367595961078
6	43	42	0.973
6	44	43	0.973
6	45	44	0.973
6	46	45	0.973
6	48	46	2.9905928359794
6	81	47	5.6724494837386
6	83	48	4.4925437114401
7	5	4	1.7145783787812
7	6	5	3.6336315965266
7	7	6	4.6516963055576
7	8	7	5.0492468367549
7	9	8	6.649445835453
7	10	9	8.8106038012295
7	11	10	10.371810225373
7	12	11	12.170720629462
7	13	12	13.175137063918
7	14	13	11.100464402197
7	15	14	13.496127163839
7	16	15	11.321726655387
7	17	16	11.003993141259
7	18	17	8.8039931412594
7	19	18	6.6039931412594
7	20	19	4.4039931412594
7	21	20	2.2039931412594
7	22	21	1.3996987209749
7	23	22	2.5346387507953
7	24	23	4.8897510185698
7	25	24	8.2332583900634
7	26	25	8.3230945952109
7	27	26	7.1492881442526
7	28	27	4.9492881442526
7	29	28	2.7492881442526
7	30	29	1.8605330276589
7	31	30	4.3657875326282
7	32	31	7.0888114328083
7	33	32	8.258687949605
7	34	33	9.1649318905367
7	35	34	10.680534092808
7	36	35	12.786645249678
7	37	36	13.234052512177
7	38	37	14.504001727298
7	39	38	14.502136557799
7	40	39	12.302136557799
7	41	40	12.504986587647
7	42	41	10.304986587647
7	43	42	8.1049865876468
7	44	43	5.9049865876468
7	45	44	7.4908745339516
7	46	45	10.971040883628
7	48	46	10.494421842296
7	81	47	8.2944218422965
7	83	48	6.5444519160574
8	6	5	1.9190532177454
8	7	6	1.018064709031
8	8	7	0.39755053119734
8	9	8	1.600198998698
8	10	9	2.1611579657765
8	11	10	1.5612064241432
8	12	11	1.7989104040898
8	13	12	1.0044164344558
8	14	13	-2.0746726617217
8	15	14	2.3956627616426
8	16	15	-2.1744005084518
8	17	16	-0.31773351412793
8	18	17	-2.2
8	19	18	-2.2
8	20	19	-2.2
8	21	20	-2.2
8	22	21	-0.80429442028454
8	23	22	1.1349400298204
8	24	23	2.3551122677745
8	25	24	3.3435073714936
8	26	25	0.089836205147483
8	27	26	-1.1738064509584
8	28	27	-2.2
8	29	28	-2.2
8	30	29	-0.8887551165937
8	31	30	2.5052545049693
8	32	31	2.7230239001801
8	33	32	1.1698765167966
8	34	33	0.90624394093174
8	35	34	1.5156022022711
8	36	35	2.1061111568706
8	37	36	0.44740726249845
8	38	37	1.2699492151207
8	39	38	-0.0018651694990695
8	40	39	-2.2
8	41	40	0.20285002984824
8	42	41	-2.2
8	43	42	-2.2
8	44	43	-2.2
8	45	44	1.5858879463049
8	46	45	3.4801663496764
8	48	46	-0.4766190413316
8	81	47	-2.2
8	83	48	-1.7499699262391
9	6	5	2.9702432537143
9	7	6	2.4850066090977
9	8	7	1.8492343153053
9	9	8	4.022274435233
9	10	9	6.187111682671
9	11	10	5.6158084564625
9	12	11	7.1401193863077
9	13	12	5.1460698817361
9	14	13	0.973
9	15	14	9.7801971023196
9	16	15	0.973
9	17	16	0.973
9	18	17	0.973
9	19	18	0.973
9	20	19	0.973
9	21	20	0.973
9	22	21	0.973
9	23	22	1.9270510044359
9	24	23	4.1320167563479
9	25	24	8.1929678077505
9	26	25	1.7449686458991
9	27	26	0.973
9	28	27	0.973
9	29	28	0.973
9	30	29	0.973
9	31	30	3.9642081953113
9	32	31	6.1368953298747
9	33	32	3.8888918084161
9	34	33	3.6248962067663
9	35	34	5.6389538260296
9	36	35	8.4101077544024
9	37	36	3.38949144489
9	38	37	6.5305971352179
9	39	38	2.0848173466273
9	40	39	0.973
9	41	40	2.5052135648669
9	42	41	0.973
9	43	42	0.973
9	44	43	0.973
9	45	44	4.3731947632217
9	46	45	10.962863154627
9	48	46	0.973
9	81	47	0.973
9	83	48	0.973
10	7	6	171.24229591837
10	8	7	171.24229591837
10	9	8	168.82010738662
10	10	9	165.72403810683
10	11	10	160.03269850805
10	12	11	151.01747327849
10	13	12	138.67864387435
10	14	13	128.48705936817
10	15	14	120.44271975996
10	16	15	113.74662543223
10	17	16	107.73353629218
10	18	17	100.75892229785
10	19	18	93.958867429214
10	20	19	87.396483679818
10	21	20	84.217948523471
10	22	21	82.012082745477
10	23	22	79.538587990003
10	24	23	76.563323531054
10	25	24	74.17634188437
10	26	25	74.271097254941
10	27	26	77.511832578569
10	28	27	82.239457461769
10	29	28	86.01199252461
10	30	29	89.070167708011
10	31	30	91.173253071054
10	32	31	92.321248613737
10	33	32	94.532689943865
10	34	33	96.498688414317
10	35	34	100.33121200981
10	36	35	105.03048342852
10	37	36	111.28044731575
10	38	37	117.75818186004
10	39	38	125.21208829753
10	40	39	135.40556287663
10	41	40	145.94665168147
10	42	41	159.03653549732
10	43	42	171.4363621067
10	44	43	185.09843863018
10	45	44	196.61158930473
10	46	45	207.90552843401
10	48	46	217.05054171437
10	81	47	224.79242759709
10	83	48	229.32991580898
11	7	6	21.431071428571
11	8	7	21.431071428571
11	9	8	21.971727206437
11	10	9	22.662799648919
11	11	10	23.933161388951
11	12	11	25.945446372235
11	13	12	28.69959177504
11	14	13	30.97445146356
11	15	14	32.770025437793
11	16	15	36.91414714874
11	17	16	42.4092851381
11	18	17	48.783124844899
11	19	18	54.997441474514
11	20	19	60.994559328942
11	21	20	67.628517844657
11	22	21	74.249860281829
11	23	22	81.674544030008
11	24	23	90.605388789638
11	25	24	97.770386330109
11	26	25	102.84798480853
11	27	26	109.57186589644
11	28	27	119.38074702015
11	29	28	127.20800677122
11	30	29	133.55311188649
11	31	30	137.91659562912
11	32	31	140.29845799911
11	33	32	144.457945251
11	34	33	145.96368726708
11	35	34	147.41723706061
11	36	35	149.06787992817
11	37	36	151.26321137293
11	38	37	153.53854841367
11	39	38	156.15677077204
11	40	39	159.73728030436
11	41	40	163.43989109265
11	42	41	168.03777902732
11	43	42	168.76171886976
11	44	43	165.75693439138
11	45	44	163.22477638562
11	46	45	160.74083092264
11	48	46	158.72951193228
11	81	47	157.02679137631
11	83	48	154.00284295258
12	8	7	2.4816986524966
12	9	8	3.1721358015565
12	10	9	5.8311686427695
12	11	10	9.2367179560605
12	12	11	12.641978898122
12	13	12	10.441978898122
12	14	13	8.2419788981219
12	15	14	7.2518328347934
12	16	15	8.1455911432851
12	17	16	9.4481143812874
12	18	17	9.2116490246048
12	19	18	8.8896894263355
12	20	19	6.6896894263355
12	21	20	6.9789997916687
12	22	21	7.8257342560701
12	23	22	9.413251815368
12	24	23	7.5520208804678
12	25	24	5.3520208804678
12	26	25	7.4648661937374
12	27	26	10.889839386129
12	28	27	8.6898393861293
12	29	28	7.0443483534904
12	30	29	4.8443483534904
12	31	30	2.6443483534904
12	32	31	4.7156581692334
12	33	32	2.5156581692334
12	34	33	4.1003452828789
12	35	34	4.9808471960185
12	36	35	6.624455650517
12	37	36	6.8658741040325
12	38	37	7.900537268555
12	39	38	10.804257671296
12	40	39	11.172700603673
12	41	40	13.874216935174
12	42	41	11.862090124469
12	43	42	13.986787104207
12	44	43	11.786787104207
12	45	44	11.562365493832
12	46	45	9.3623654938321
12	48	46	7.9258895557052
12	81	47	5.7258895557052
12	83	48	7.0081702204798
13	9	8	0.6904371490599
13	10	9	2.659032841213
13	11	10	3.405549313291
13	12	11	3.4052609420614
13	13	12	-2.2
13	14	13	-2.2
13	15	14	-0.99014606332852
13	16	15	0.89375830849167
13	17	16	1.3025232380023
13	18	17	-0.23646535668259
13	19	18	-0.32195959826932
13	20	19	-2.2
13	21	20	0.28931036533322
13	22	21	0.84673446440138
13	23	22	1.5875175592979
13	24	23	-1.8612309349002
13	25	24	-2.2
13	26	25	2.1128453132696
13	27	26	3.4249731923919
13	28	27	-2.2
13	29	28	-1.6454910326389
13	30	29	-2.2
13	31	30	-2.2
13	32	31	2.071309815743
13	33	32	-2.2
13	34	33	1.5846871136455
13	35	34	0.8805019131396
13	36	35	1.6436084544985
13	37	36	0.24141845351551
13	38	37	1.0346631645225
13	39	38	2.9037204027409
13	40	39	0.36844293237664
13	41	40	2.701516331502
13	42	41	-2.0121268107054
13	43	42	2.1246969797379
13	44	43	-2.2
13	45	44	-0.22442161037495
13	46	45	-2.2
13	48	46	-1.4364759381268
13	81	47	-2.2
13	83	48	1.2822806647746
14	9	8	1.7938011697529
14	10	9	5.1463817597549
14	11	10	9.2092980656136
14	12	11	12.281360823685
14	13	12	0.973
14	14	13	0.973
14	15	14	0.973
14	16	15	3.3073966292282
14	17	16	4.6095293508969
14	18	17	0.973
14	19	18	0.973
14	20	19	0.973
14	21	20	1.9646709560732
14	22	21	3.1287301968628
14	23	22	5.2425809664776
14	24	23	0.973
14	25	24	0.973
14	26	25	5.3096102681619
14	27	26	10.743300257861
14	28	27	0.973
14	29	28	0.973
14	30	29	0.973
14	31	30	0.973
14	32	31	3.7011595426784
14	33	32	0.973
14	34	33	2.8801303137653
14	35	34	2.4186317997246
14	36	35	4.0804293513257
14	37	36	1.8705782489377
14	38	37	3.5067067706352
14	39	38	9.3084888263856
14	40	39	2.7698871469141
14	41	40	11.05903178716
14	42	41	0.973
14	43	42	9.1994551456603
14	44	43	0.973
14	45	44	1.1852058678194
14	46	45	0.973
14	48	46	0.973
14	81	47	0.973
14	83	48	3.6456034876985
15	10	9	171.24229591837
15	11	10	171.24229591837
15	12	11	171.08330352237
15	13	12	169.71437423988
15	14	13	164.99037484126
15	15	14	160.2531409745
15	16	15	154.61131272779
15	17	16	148.01962004466
15	18	17	139.41414130958
15	19	18	128.74457590122
15	20	19	120.22225539082
15	21	20	113.80948197998
15	22	21	106.86781126456
15	23	22	99.425829416673
15	24	23	92.694579359238
15	25	24	87.58737301765
15	26	25	84.695275412241
15	27	26	82.907016047769
15	28	27	80.807696973306
15	29	28	77.649546198127
15	30	29	74.894525852386
15	31	30	73.805008397462
15	32	31	75.664066574246
15	33	32	77.834745401405
15	34	33	80.352022416826
15	35	34	84.017662394032
15	36	35	86.728212550878
15	37	36	89.344471142385
15	38	37	91.193425642021
15	39	38	92.126354091591
15	40	39	94.122202140355
15	41	40	100.31903345471
15	42	41	107.68876218026
15	43	42	117.75549169007
15	44	43	128.17327503641
15	45	44	139.73227943278
15	46	45	150.12914990072
15	48	46	158.45039011656
15	81	47	164.27156398393
15	83	48	167.31121250306
16	10	9	21.431071428571
16	11	10	21.431071428571
16	12	11	21.46656006061
16	13	12	21.772118243372
16	14	13	22.826560346463
16	15	14	23.883956510135
16	16	15	25.143266840164
16	17	16	26.614596048578
16	18	17	28.535421673189
16	19	18	30.916971296487
16	20	19	32.8192352055
16	21	20	36.856704893128
16	22	21	43.200438965492
16	23	22	50.001388729581
16	24	23	56.152827207372
16	25	24	60.820112679698
16	26	25	66.19572677616
16	27	26	71.563540963574
16	28	27	77.865062395916
16	29	28	87.344876607321
16	30	29	95.614615098442
16	31	30	101.84335199436
16	32	31	105.73811903017
16	33	32	110.24184576387
16	34	33	115.46469478632
16	35	34	123.0701685003
16	36	35	128.69402084164
16	37	36	134.12223694317
16	38	37	137.95844970077
16	39	38	139.89409063778
16	40	39	143.85589647252
16	41	40	147.4129592815
16	42	41	150.00161379255
16	43	42	153.53760347785
16	44	43	157.19690259983
16	45	44	161.25706139105
16	46	45	164.90901475865
16	48	46	167.831892496
16	81	47	173.46616677496
16	83	48	179.63152018251
17	11	10	0.16289863886777
17	12	11	1.4025621503824
17	13	12	4.8400621125475
17	14	13	4.8536217348883
17	15	14	5.7804408591473
17	16	15	6.7536422681296
17	17	16	8.8169045064133
17	18	17	10.931703188911
17	19	18	8.7317031889106
17	20	19	6.9408037302029
17	21	20	9.4034879879738
17	22	21	10.08123113042
17	23	22	9.1184430455027
17	24	23	6.9184430455027
17	25	24	5.4380919186334
17	26	25	5.6577611641662
17	27	26	6.6419033875392
17	28	27	9.9918743116252
17	29	28	8.7164353383505
17	30	29	6.5164353383505
17	31	30	4.3164353383505
17	32	31	5.00004640187
17	33	32	5.7984174010377
17	34	33	8.4436120854258
17	35	34	6.2436120854258
17	36	35	6.0264163418152
17	37	36	4.2589710543342
17	38	37	2.1489524286651
17	39	38	4.4360582137658
17	40	39	7.3316245763041
17	41	40	7.8113157099057
17	42	41	10.669918160601
17	43	42	11.042006801909
17	44	43	12.251608708387
17	45	44	11.019840844157
17	46	45	8.8198408441574
17	48	46	8.5890021522253
17	81	47	6.8757194943216
17	83	48	10.240753615527
18	12	11	1.2396635115147
18	13	12	3.437499962165
18	14	13	0.013559622340836
18	15	14	0.92681912425905
18	16	15	0.97320140898228
18	17	16	2.0632622382836
18	18	17	2.1147986824973
18	19	18	-2.2
18	20	19	-1.7908994587077
18	21	20	2.4626842577709
18	22	21	0.67774314244637
18	23	22	-0.96278808491753
18	24	23	-2.2
18	25	24	-1.4803511268692
18	26	25	0.21966924553271
18	27	26	0.98414222337306
18	28	27	3.3499709240859
18	29	28	-1.2754389732746
18	30	29	-2.2
18	31	30	-2.2
18	32	31	0.68361106351949
18	33	32	0.79837099916767
18	34	33	2.6451946843881
18	35	34	-2.2
18	36	35	-0.21719574361062
18	37	36	-1.767445287481
18	38	37	-2.1100186256692
18	39	38	2.2871057851007
18	40	39	2.8955663625384
18	41	40	0.47969113360159
18	42	41	2.8586024506949
18	43	42	0.37208864130851
18	44	43	1.2096019064775
18	45	44	-1.2317678642292
18	46	45	-2.2
18	48	46	-0.23083869193215
18	81	47	-1.7132826579036
18	83	48	3.3650341212051
19	12	11	1.5969424140896
19	13	12	5.3636478203316
19	14	13	1.3705623036439
19	15	14	2.6978299373691
19	16	15	3.0482622099908
19	17	16	5.9828168427959
19	18	17	7.3295483197169
19	19	18	0.973
19	20	19	0.973
19	21	20	7.2214731875377
19	22	21	3.3375959674735
19	23	22	0.973
19	24	23	0.973
19	25	24	0.973
19	26	25	1.6991843126697
19	27	26	3.0327882508234
19	28	27	9.7510315966071
19	29	28	0.973
19	30	29	0.973
19	31	30	0.973
19	32	31	2.1865088961821
19	33	32	2.5233836119793
19	34	33	6.955664909168
19	35	34	0.973
19	36	35	0.973
19	37	36	0.973
19	38	37	0.973
19	39	38	3.7771816973299
19	40	39	6.6163221285775
19	41	40	2.433879075101
19	42	41	9.0876872181492
19	43	42	2.7572105993357
19	44	43	5.4424176246393
19	45	44	0.973
19	46	45	0.973
19	48	46	0.973
19	81	47	0.973
19	83	48	10.008203890802
20	14	13	171.24229591837
20	15	14	171.24229591837
20	16	15	168.04421442285
20	17	16	165.12938047489
20	18	17	161.16798380457
20	19	18	155.47914224237
20	20	19	148.25513357195
20	21	20	139.63087006225
20	22	21	127.71971542684
20	23	22	117.30355742408
20	24	23	109.98330051665
20	25	24	101.65531466285
20	26	25	93.685666086432
20	27	26	87.338742152463
20	28	27	84.242500916441
20	29	28	81.475120931404
20	30	29	79.312493544924
20	31	30	77.845224355384
20	32	31	77.073313362786
20	33	32	76.78778136176
20	34	33	77.078535450422
20	35	34	77.708778258195
20	36	35	78.416000299506
20	37	36	79.863098103294
20	38	37	82.590083300492
20	39	38	85.581164275826
20	40	39	89.075490471644
20	41	40	91.614726847102
20	42	41	93.284917325117
20	43	42	94.093744813271
20	44	43	95.007953654282
20	45	44	96.553808594085
20	46	45	101.08998299987
20	48	46	107.25661610198
20	81	47	116.29102463812
20	83	48	126.40603474729
21	14	13	21.431071428571
21	15	14	21.431071428571
21	16	15	22.1449139788
21	17	16	22.795532952025
21	18	17	23.67975479114
21	19	18	24.949558945379
21	20	19	26.562027164024
21	21	20	31.763292463889
21	22	21	34.421976744766
21	23	22	37.997543080821
21	24	23	44.687252959886
21	25	24	52.297888753603
21	26	25	59.581053468792
21	27	26	68.365982808905
21	28	27	77.659963293263
21	29	28	85.966801686379
21	30	29	92.458355539177
21	31	30	96.862654226962
21	32	31	99.179697749735
21	33	32	100.07998709766
21	34	33	101.30750699313
21	35	34	102.61546978571
21	36	35	104.08319001149
21	37	36	107.08639776132
21	38	37	112.74579621832
21	39	38	118.95328097986
21	40	39	126.2051664324
21	41	40	131.47492383335
21	42	41	134.94112285191
21	43	42	136.61970806871
21	44	43	138.51699453345
21	45	44	141.67440563778
21	46	45	147.6837592108
21	48	46	149.84982029558
21	81	47	153.02320201459
21	83	48	156.57615050476
22	15	14	3.2766543289181
22	16	15	2.98644774595
22	17	16	4.0587231959375
22	18	17	5.8286092325738
22	19	18	7.4014934626333
22	20	19	9.5533489174135
22	21	20	12.203796699108
22	22	21	12.098072383367
22	23	22	9.9163372507788
22	24	23	11.28145055431
22	25	24	10.796031348803
22	26	25	11.996002620249
22	27	26	9.7960026202494
22	28	27	8.7555392226088
22	29	28	6.8422005682624
22	30	29	4.6422005682624
22	31	30	2.4422005682624
22	32	31	0.94580639408893
22	33	32	1.3081915626441
22	34	33	1.4517317089391
22	35	34	1.6290493917092
22	36	35	3.3333149411389
22	37	36	6.2814693507877
22	38	37	6.889800315597
22	39	38	8.0489996510561
22	40	39	5.8489996510561
22	41	40	3.8471973769448
22	42	41	1.8630922830562
22	43	42	2.1058327786058
22	44	43	3.5214033066883
22	45	44	6.5097390662599
22	46	45	6.536131765712
22	48	46	9.5757415172597
22	81	47	10.721091686562
22	83	48	10.515361692803
23	16	15	-0.29020658296812
23	17	16	1.0722754499875
23	18	17	1.7698860366363
23	19	18	1.5728842300596
23	20	19	2.1518554547802
23	21	20	2.6504477816945
23	22	21	-0.1057243157411
23	23	22	-2.1817351325881
23	24	23	1.365113303531
23	25	24	-0.48541920550633
23	26	25	1.199971271446
23	27	26	-2.2
23	28	27	-1.0404633976406
23	29	28	-1.9133386543464
23	30	29	-2.2
23	31	30	-2.2
23	32	31	-1.4963941741735
23	33	32	0.36238516855519
23	34	33	0.14354014629498
23	35	34	0.17731768277008
23	36	35	1.7042655494297
23	37	36	2.9481544096489
23	38	37	0.60833096480928
23	39	38	1.1591993354591
23	40	39	-2.2
23	41	40	-2.0018022741113
23	42	41	-1.9841050938885
23	43	42	0.24274049554952
23	44	43	1.4155705280826
23	45	44	2.9883357595716
23	46	45	0.026392699452116
23	48	46	3.0396097515477
23	81	47	1.1453501693023
23	83	48	-0.20572999375872
24	16	15	0.973
24	17	16	2.3608179734665
24	18	17	3.8956141321447
24	19	18	4.3101527087234
24	20	19	6.6057384031017
24	21	20	9.6618855554516
24	22	21	1.5489340688018
24	23	22	0.973
24	24	23	5.4983654751501
24	25	24	0.973
24	26	25	5.317319300513
24	27	26	0.973
24	28	27	0.973
24	29	28	0.973
24	30	29	0.973
24	31	30	0.973
24	32	31	0.973
24	33	32	1.2875646602186
24	34	33	1.2305341858732
24	35	34	1.2585997951103
24	36	35	2.6433062666452
24	37	36	5.898930630685
24	38	37	2.4826750885411
24	39	38	3.7950813643079
24	40	39	0.973
24	41	40	0.973
24	42	41	0.973
24	43	42	1.3356402275538
24	44	43	2.4852418798092
24	45	44	6.137755503335
24	46	45	1.4926719549195
24	48	46	8.6677173399937
24	81	47	4.7003605162691
24	83	48	1.203309805842
25	68	46.89196811821	0.89196811821
26	72	46.891968229973	0.891968229973
27	76	46.89196839814	0.89196839814
28	80	46.891968498349	0.891968498349
vector 29 FLScenario.node[0].appl Delay ETV
0	116	49	248.55576038044
0	117	50	244.81963684411
0	119	51	241.56427648817
0	120	52	238.9517708065
1	116	49	77.511323444904
1	117	50	65.284411765407
1	119	51	54.630855165895
1	120	52	46.081117470825
2	116	49	12.785894089131
2	117	50	11.140609331654
2	119	51	8.9406093316539
2	120	52	6.7406093316539
3	116	49	245.05239291502
3	117	50	248.19271922825
3	119	51	250.8609578216
3	120	52	251.51620114681
4	116	49	113.1322891899
4	117	50	106.46769384016
4	119	51	100.80499234117
4	120	52	98.143936810448
5	116	49	3.3062188568292
5	117	50	-1.6452847574768
5	119	51	-2.2
5	120	52	-2.2
6	116	49	12.107668652931
6	117	50	0.973
6	119	51	0.973
6	120	52	0.973
7	116	49	7.3674481526275
7	117	50	6.2598938882564
7	119	51	4.0598938882564
7	120	52	6.6816612228964
8	116	49	0.82299623657018
8	117	50	-1.1075542643712
8	119	51	-2.2
8	120	52	2.62176733464
9	116	49	2.9636230878976
9	117	50	0.973
9	119	51	0.973
9	120	52	5.6816603974276
10	116	49	232.3171022669
10	117	50	235.44500399489
10	119	51	239.16075315969
10	120	52	243.58551183788
11	116	49	147.66325050564
11	117	50	141.02502338161
11	119	51	133.13922995301
11	120	52	123.74873254318
12	116	49	7.3382991157151
12	117	50	8.7174346196144
12	119	51	10.380825716132
12	120	52	10.682660090084
13	116	49	0.33012889523525
13	117	50	1.3791355038993
13	119	51	1.6633910965174
13	120	52	0.30183437395236
14	116	49	2.0843479853541
14	117	50	4.4891554502867
14	119	51	5.8755479270099
14	120	52	2.5150292885984
15	116	49	171.94331157352
15	117	50	176.65272236258
15	119	51	180.36702885194
15	120	52	183.0862310416
16	116	49	188.76492964378
16	117	50	198.05077962315
16	119	51	205.3745180657
16	120	52	210.73614497143
17	116	49	10.411676182123
17	117	50	8.2116761821231
17	119	51	6.0116761821231
17	120	52	5.9164409539734
18	116	49	0.17092256659635
18	117	50	-2.2
18	119	51	-2.2
18	120	52	-0.095235228149708
19	116	49	2.1454046134665
19	117	50	0.973
19	119	51	0.973
19	120	52	1.2787485253801
20	116	49	136.32694512973
20	117	50	144.88406795124
20	119	51	154.22020144756
20	120	52	161.70125914949
21	116	49	160.06092048363
21	117	50	163.06665317996
21	119	51	166.34601731818
21	120	52	169.25062957475
22	116	49	9.0698573063597
22	117	50	9.8955455438702
22	119	51	8.0374829080657
22	120	52	5.8374829080657
23	116	49	-1.4455043864436
23	117	50	0.82568823751057
23	119	51	-1.8580626358045
23	120	52	-2.2
24	116	49	0.973
24	117	50	3.6459984834909
24	119	51	0.973
24	120	52	0.973
26	107	48.187371240977	0.187371240977
27	111	48.187371469091	0.187371469091
28	115	48.18737151322	0.18737151322
29	103	48.187371237602	0.187371237602
0	153	53	236.40953617454
0	155	54	231.5354592634
1	153	53	39.928499955038
1	155	54	37.864601206763
2	153	53	5.3344052148904
2	155	54	7.5235148148066
3	153	53	249.56377516998
3	155	54	247.28466346341
4	153	53	91.754388995084
4	155	54	84.295723007987
5	153	53	-1.4062041167635
5	155	54	2.1891095999163
6	153	53	0.973
6	155	54	5.481495856119
7	153	53	7.7996566800381
7	155	54	11.138321306275
8	153	53	1.1179954571417
8	155	54	3.338664626237
9	153	53	3.6316035893129
9	155	54	10.737061643234
10	153	53	248.13892543255
10	155	54	251.8137665413
11	153	53	114.08519568695
11	155	54	106.28621987313
12	153	53	8.6214611595487
12	155	54	6.4214611595487
13	153	53	-2.0611989305355
13	155	54	-2.2
14	153	53	0.973
14	155	54	0.973
15	153	53	185.76235641988
15	155	54	185.087096765
16	153	53	216.01283454085
16	155	54	219.26455528841
17	153	53	3.7164409539734
17	155	54	7.1552250168358
18	153	53	-2.2
18	155	54	3.4387840628624
19	153	53	0.973
19	155	54	7.4188799822111
20	153	53	164.59181213063
20	155	54	167.97312635177
21	153	53	174.20178628025
21	155	54	180.93665854773
22	153	53	7.5367880053355
22	155	54	8.8216636110566
23	153	53	1.6993050972698
23	155	54	1.284875605721
24	153	53	4.5996831449808
24	155	54	4.3306491815092
25	140	52.078861315616	1.078861315616
27	152	52.078861639584	1.078861639584
28	148	52.078861584307	1.078861584307
29	144	52.078861491412	1.078861491412
29	187	54.79016028772	0.79016028772
29	250	58.299910584906	0.299910584906
29	290	58.76787766329	0.76787766329
29	318	61.770882815125	0.770882815125
29	354	64.670435190401	0.67043519040099
29	425	68.259213715477	0.259213715477
29	453	68.488252821118	0.488252821118
29	498	75.076698111313	1.076698111313
29	536	78.189423184637	0.18942318463699
29	572	81.468223593104	0.468223593104
29	608	84.36563025445	0.36563025445
29	643	88.159594346225	0.15959434622499
29	687	88.468805050456	0.468805050456
29	719	91.778051295594	0.778051295594
29	759	94.676393643008	0.676393643008
29	826	98.496740672905	0.49674067290499
29	862	101.8754977443	0.87549774429999
29	894	104.756628023629	0.75662802362899
29	973	108.6911152938	0.6911152938
29	1013	114.99678347842	0.99678347842
29	1052	118.85412302947	0.85412302947
29	1088	121.299688081245	0.29968808124499
29	1124	124.998245199998	0.998245199998
29	1195	131.956038897165	0.956038897165
29	1231	134.671276051799	0.671276051799
29	1294	138.264928902488	0.26492890248801
29	1334	138.650267575578	0.650267575578
29	1370	141.498455476215	0.49845547621499
29	1406	144.590692810261	0.590692810261
29	1473	148.16748459454	0.16748459453999
29	1505	148.894072746645	0.89407274664501
29	1545	151.858623830449	0.85862383044901
29	1585	154.779222243207	0.77922224320699
29	1652	158.354180817411	0.35418081741099
29	1684	161.574922856959	0.57492285695901
29	1759	168.496302315967	0.496302315967
29	1803	171.455849146939	0.45584914693899
29	1878	178.391074074477	0.39107407447699
29	1914	181.885388975394	0.88538897539399
29	1982	189.099554503709	1.099554503709
29	2017	191.393254715784	0.393254715784
29	2053	194.298383277662	0.298383277662
6	188	55	2.9722504807369
6	190	56	1.9200657382362
6	223	57	9.5453508085509
6	226	58	0.973
6	291	59	0.973
6	292	60	0.973
6	294	61	9.3740724150788
6	327	62	10.276768342057
6	328	63	0.973
6	330	64	0.973
6	363	65	0.973
6	365	66	0.973
6	398	67	0.973
6	401	68	5.6929922277728
6	466	69	8.2817775044443
6	467	70	0.973
6	469	71	0.973
6	470	72	0.973
6	471	73	5.7654169816317
6	473	74	2.2076858400957
6	474	75	3.9224857411925
6	508	76	0.973
6	509	77	0.973
6	512	78	8.580085893632
6	545	79	1.6513318218338
6	546	80	0.973
6	548	81	0.973
6	581	82	0.973
6	582	83	1.431671856625
6	584	84	1.4389381010531
6	617	85	1.9720486967083
6	619	86	6.6076329768761
6	620	87	10.712960518888
6	623	88	7.30841317303
6	688	89	6.9135314867177
6	689	90	0.973
6	691	91	0.973
6	724	92	2.7608448662212
6	725	93	5.7331165203104
6	727	94	0.973
6	760	95	0.973
6	762	96	0.973
6	795	97	0.973
6	798	98	0.973
6	831	99	3.1766020516411
6	832	100	2.8102042184107
6	834	101	7.5664347469542
6	867	102	2.4669584986342
6	868	103	10.113278049674
6	870	104	0.973
6	903	105	0.973
6	905	106	0.973
6	938	107	0.973
6	941	108	0.973
6	974	109	2.0300645802643
6	975	110	1.9610143134378
6	977	111	1.6658411822071
6	978	112	4.7066319092568
6	979	113	1.8254939073176
6	981	114	8.3051970591504
6	1014	115	2.8001536681726
6	1016	116	1.6380640979411
6	1017	117	0.973
6	1020	118	0.973
6	1053	119	0.973
6	1054	120	0.973
6	1056	121	0.973
6	1089	122	3.0564470620937
6	1090	123	6.1203601460504
6	1092	124	4.1076472445031
6	1125	125	4.0510827929907
6	1127	126	0.973
6	1160	127	2.0971563501645
6	1163	128	0.973
6	1164	129	0.973
6	1165	130	0.973
6	1167	131	5.9788708805415
6	1200	132	5.906951888624
6	1201	133	6.8318202010739
6	1203	134	5.2759147003676
6	1236	135	0.973
6	1238	136	0.973
6	1271	137	0.973
6	1274	138	0.973
6	1339	139	3.339421799808
6	1340	140	7.2807760396653
6	1342	141	2.3699576719937
6	1375	142	5.1446493177186
6	1376	143	7.793792894624
6	1378	144	0.973
6	1411	145	0.973
6	1413	146	0.973
6	1446	147	11.421747960162
6	1449	148	1.9616931831148
6	1514	149	11.872397144454
6	1515	150	0.973
6	1517	151	0.973
6	1550	152	3.239034769912
6	1551	153	0.973
6	1553	154	0.973
6	1586	155	0.973
6	1588	156	0.973
6	1589	157	0.973
6	1624	158	0.973
6	1657	159	0.973
6	1658	160	3.106406037433
6	1660	161	6.55647555401
6	1693	162	3.8374471318836
6	1694	163	11.127977582108
6	1696	164	1.3200860812172
6	1697	165	0.973
6	1699	166	0.973
6	1732	167	0.973
6	1735	168	0.973
6	1768	169	3.402907356715
6	1769	170	6.2158273594443
6	1771	171	1.9286396996258
6	1804	172	5.0168243314925
6	1805	173	9.233828180608
6	1807	174	0.973
6	1808	175	0.973
6	1810	176	2.244314381121
6	1843	177	0.973
6	1846	178	0.973
6	1879	179	4.078324810322
6	1880	180	5.8596151172043
6	1882	181	7.5448435451899
6	1915	182	0.973
6	1916	183	2.6121621214573
6	1918	184	0.973
6	1919	185	0.973
6	1921	186	0.973
6	1922	187	2.6275002600307
6	1957	188	3.0721987150568
6	1958	189	1.4573097232374
6	1991	190	4.1894885836137
6	1993	191	7.5855779164984
6	2026	192	0.973
6	2027	193	0.973
6	2029	194	0.973
6	2062	195	0.973
6	2064	196	2.8752505694344
6	2097	197	2.9971226980287
6	2100	198	4.4549981534532
6	2101	199	2.6347893568956
6	2102	200	2.7085890480351
5	188	55	0.71209955529775
5	190	56	0.17249990953133
5	223	57	2.857978243148
5	226	58	-2.2
5	291	59	-1.2227024422135
5	292	60	-1.5663862108951
5	294	61	3.33276032086
5	327	62	2.8046477022581
5	328	63	-1.4890781434432
5	330	64	-0.58178039338721
5	363	65	-2.2
5	365	66	-1.3273507385049
5	398	67	-0.59741003904492
5	401	68	2.0682458549272
5	466	69	2.5110392292263
5	467	70	-1.7871659411384
5	469	71	-2.2
5	470	72	-0.70085956156254
5	471	73	2.1207824088633
5	473	74	0.30547196127009
5	474	75	0.99007366460353
5	508	76	-2.2
5	509	77	-0.85531002515927
5	512	78	3.0282403375022
5	545	79	0.0016500260499921
5	546	80	-2.2
5	548	81	-0.79540304199917
5	581	82	-2.2
5	582	83	0.09567358950153
5	584	84	0.095604761620052
5	617	85	0.50532669294626
5	619	86	2.7279529913794
5	620	87	3.3492308456916
5	623	88	1.7427005848149
5	688	89	1.4137376393675
5	689	90	-2.2
5	691	91	-2.2
5	724	92	0.42692504799925
5	725	93	1.3934923071252
5	727	94	-1.8017148552391
5	760	95	-1.897384604835
5	762	96	-2.2
5	795	97	-1.9790759798372
5	798	98	-2.1685831252253
5	831	99	2.1038498161361
5	832	100	1.2204186919844
5	834	101	3.106907911133
5	867	102	0.43649261246901
5	868	103	3.0033599559683
5	870	104	-2.2
5	903	105	-1.8274778926879
5	905	106	-1.3425952399257
5	938	107	-2.2
5	941	108	-1.9793529003984
5	974	109	1.0689506096533
5	975	110	0.7389157563448
5	977	111	0.3565616881242
5	978	112	2.167613617843
5	979	113	0.24014278629329
5	981	114	2.9304932556115
5	1014	115	0.4703365736641
5	1016	116	-0.016048405823922
5	1017	117	-0.71631062621406
5	1020	118	-2.2
5	1053	119	-2.2
5	1054	120	-1.2449925584009
5	1056	121	-0.91418562363833
5	1089	122	1.6760532289045
5	1090	123	2.7391621131683
5	1092	124	1.272063297336
5	1125	125	1.0688028205186
5	1127	126	-0.80141371275369
5	1160	127	0.23545640225056
5	1163	128	-2.2
5	1164	129	-2.2
5	1165	130	-2.2
5	1167	131	3.3962004536297
5	1200	132	2.2968500002753
5	1201	133	2.1295328796841
5	1203	134	1.279882673365
5	1236	135	-2.2
5	1238	136	-2.2
5	1271	137	-2.2
5	1274	138	-2.2
5	1339	139	1.8948603433091
5	1340	140	3.1633206455735
5	1342	141	0.42944502725731
5	1375	142	1.5242168280529
5	1376	143	2.1291953874752
5	1378	144	-1.2515607541481
5	1411	145	-0.50693684448488
5	1413	146	-1.3616958229104
5	1446	147	3.3489525548648
5	1449	148	0.041953095118515
5	1514	149	2.7599679968254
5	1515	150	-2.1960822095163
5	1517	151	-2.2
5	1550	152	0.56894391321111
5	1551	153	-0.64957926188106
5	1553	154	-2.0173135963137
5	1586	155	-0.24601159288238
5	1588	156	-0.45060577525057
5	1589	157	-2.2
5	1624	158	-2.2
5	1657	159	-1.1001488481415
5	1658	160	1.916615613387
5	1660	161	3.0376428522868
5	1693	162	1.170028622495
5	1694	163	3.3701138789766
5	1696	164	-0.17209666636472
5	1697	165	-1.7280201818872
5	1699	166	-2.2
5	1732	167	-2.0861675877124
5	1735	168	-1.7283208921173
5	1768	169	1.6230694302358
5	1769	170	2.5238962222356
5	1771	171	0.20482780912425
5	1804	172	1.4892225315562
5	1805	173	2.5614406242967
5	1807	174	-2.2
5	1808	175	-2.2
5	1810	176	0.36869542782752
5	1843	177	-2.2
5	1846	178	-1.7368936483125
5	1879	179	1.8809010912664
5	1880	180	2.2104054212105
5	1882	181	2.3222633319674
5	1915	182	-2.1760025402398
5	1916	183	0.48522954578373
5	1918	184	-1.7348481144174
5	1919	185	-2.2
5	1921	186	-0.47653685140984
5	1922	187	0.97923728358001
5	1957	188	1.0653165030526
5	1958	189	0.010648889350705
5	1991	190	1.4180194529472
5	1993	191	2.398658952763
5	2026	192	-2.2
5	2027	193	-0.64684118509758
5	2029	194	-2.2
5	2062	195	-1.2963181453763
5	2064	196	1.2335922300117
5	2097	197	1.0616534819128
5	2100	198	1.576736054616
5	2101	199	0.54038763500284
5	2102	200	0.5259081046097
2	188	55	8.2356143701044
2	190	56	8.4081142796357
2	223	57	11.266092522784
2	226	58	9.0660925227837
2	291	59	7.8433900805702
2	292	60	6.277003869675
2	294	61	9.609764190535
2	327	62	12.414411892793
2	328	63	10.92533374935
2	330	64	10.343553355963
2	363	65	8.1435533559627
2	365	66	6.8162026174578
2	398	67	6.2187925784129
2	401	68	8.2870384333401
2	466	69	10.798077662566
2	467	70	9.010911721428
2	469	71	6.810911721428
2	470	72	6.1100521598654
2	471	73	8.2308345687287
2	473	74	8.5363065299988
2	474	75	9.5263801946024
2	508	76	7.3263801946024
2	509	77	6.4710701694431
2	512	78	9.4993105069453
2	545	79	9.5009605329953
2	546	80	7.3009605329953
2	548	81	6.5055574909961
2	581	82	4.3055574909961
2	582	83	4.4012310804976
2	584	84	4.4968358421177
2	617	85	5.0021625350639
2	619	86	7.7301155264434
2	620	87	11.079346372135
2	623	88	12.82204695695
2	688	89	14.235784596317
2	689	90	12.035784596317
2	691	91	9.8357845963174
2	724	92	10.262709644317
2	725	93	11.656201951442
2	727	94	9.8544870962028
2	760	95	7.9571024913678
2	762	96	5.7571024913678
2	795	97	3.7780265115306
2	798	98	1.6094433863053
2	831	99	3.7132932024414
2	832	100	4.9337118944258
2	834	101	8.0406198055588
2	867	102	8.4771124180278
2	868	103	11.480472373996
2	870	104	9.2804723739961
2	903	105	7.4529944813082
2	905	106	6.1103992413825
2	938	107	3.9103992413825
2	941	108	1.9310463409841
2	974	109	2.9999969506374
2	975	110	3.7389127069822
2	977	111	4.0954743951064
2	978	112	6.2630880129494
2	979	113	6.5032307992427
2	981	114	9.4337240548542
2	1014	115	9.9040606285183
2	1016	116	9.8880122226944
2	1017	117	9.1717015964803
2	1020	118	6.9717015964803
2	1053	119	4.7717015964803
2	1054	120	3.5267090380794
2	1056	121	2.6125234144411
2	1089	122	4.2885766433456
2	1090	123	7.0277387565139
2	1092	124	8.2998020538499
2	1125	125	9.3686048743685
2	1127	126	8.5671911616148
2	1160	127	8.8026475638653
2	1163	128	6.6026475638653
2	1164	129	4.4026475638653
2	1165	130	2.2026475638653
2	1167	131	5.5988480174951
2	1200	132	7.8956980177704
2	1201	133	10.025230897454
2	1203	134	11.305113570819
2	1236	135	9.1051135708195
2	1238	136	6.9051135708195
2	1271	137	4.7051135708195
2	1274	138	2.5051135708195
2	1339	139	4.3999739141286
2	1340	140	7.5632945597022
2	1342	141	7.9927395869595
2	1375	142	9.5169564150124
2	1376	143	11.646151802488
2	1378	144	10.394591048339
2	1411	145	9.8876542038546
2	1413	146	8.5259583809442
2	1446	147	11.874910935809
2	1449	148	11.916864030927
2	1514	149	14.676832027753
2	1515	150	12.480749818237
2	1517	151	10.280749818237
2	1550	152	10.849693731448
2	1551	153	10.200114469567
2	1553	154	8.1828008732529
2	1586	155	7.9367892803705
2	1588	156	7.4861835051199
2	1589	157	5.2861835051199
2	1624	158	3.0861835051199
2	1657	159	1.9860346569784
2	1658	160	3.9026502703654
2	1660	161	6.9402931226522
2	1693	162	8.1103217451472
2	1694	163	11.480435624124
2	1696	164	11.308338957759
2	1697	165	9.5803187758719
2	1699	166	7.3803187758719
2	1732	167	5.2941511881594
2	1735	168	3.5658302960422
2	1768	169	5.188899726278
2	1769	170	7.7127959485136
2	1771	171	7.9176237576379
2	1804	172	9.406846289194
2	1805	173	11.968286913491
2	1807	174	9.7682869134907
2	1808	175	7.5682869134907
2	1810	176	7.9369823413182
2	1843	177	5.7369823413182
2	1846	178	4.0000886930057
2	1879	179	5.8809897842721
2	1880	180	8.0913952054825
2	1882	181	10.41365853745
2	1915	182	8.2376559972101
2	1916	183	8.7228855429938
2	1918	184	6.9880374285764
2	1919	185	4.7880374285764
2	1921	186	4.3115005771666
2	1922	187	5.2907378607466
2	1957	188	6.3560543637992
2	1958	189	6.3667032531499
2	1991	190	7.7847227060971
2	1993	191	10.18338165886
2	2026	192	7.9833816588601
2	2027	193	7.3365404737625
2	2029	194	5.1365404737625
2	2062	195	3.8402223283862
2	2064	196	5.0738145583979
2	2097	197	6.1354680403107
2	2100	198	7.7122040949267
2	2101	199	8.2525917299296
2	2102	200	8.7784998345393
1	188	55	35.505110329095
1	190	56	32.922293991709
1	223	57	30.285379008549
1	226	58	26.752157743117
1	291	59	23.908890582734
1	292	60	21.449081862922
1	294	61	20.607446682034
1	327	62	22.701002452115
1	328	63	25.40557075733
1	330	64	27.785732752724
1	363	65	30.039149733845
1	365	66	31.813281000679
1	398	67	33.447264803467
1	401	68	37.852906678181
1	466	69	43.443467131473
1	467	70	50.728012320626
1	469	71	56.806908553959
1	470	72	61.401651781827
1	471	73	67.651104647735
1	473	74	75.460128268616
1	474	75	83.558969129919
1	508	76	92.597144704943
1	509	77	99.554528994421
1	512	78	105.54366622204
1	545	79	114.100046552
1	546	80	122.65791312145
1	548	81	129.23415831826
1	581	82	135.09395457512
1	582	83	138.97212945934
1	584	84	142.93595876741
1	617	85	146.03872983498
1	619	86	147.78047422015
1	620	87	150.34221915168
1	623	88	154.01389253307
1	688	89	158.26309342682
1	689	90	162.98080416623
1	691	91	166.96943927538
1	724	92	172.22274203176
1	725	93	181.44317620552
1	727	94	191.83897998938
1	760	95	200.62789036253
1	762	96	207.72458245254
1	795	97	212.85916300571
1	798	98	216.22866728058
1	831	99	217.7559273076
1	832	100	220.69495356358
1	834	101	224.51315820367
1	867	102	230.73580202799
1	868	103	237.29624792789
1	870	104	246.18099714447
1	903	105	253.36316412926
1	905	106	259.13104411903
1	938	107	263.85988829061
1	941	108	266.88615023042
1	974	109	268.38058895265
1	975	110	269.28783690841
1	977	111	269.37136580931
1	978	112	269.46286045005
1	979	113	269.60278050141
1	981	114	269.74806544479
1	1014	115	269.95881885453
1	1016	116	270.18007978347
1	1017	117	270.40098218419
1	1020	118	270.6058819007
1	1053	119	270.76163268105
1	1054	120	270.86823452523
1	1056	121	270.91524756713
1	1089	122	269.21372561069
1	1090	123	265.89169333113
1	1092	124	260.44784168921
1	1125	125	254.01861991476
1	1127	126	246.76147835118
1	1160	127	240.12513068834
1	1163	128	233.30639296144
1	1164	129	228.19182694997
1	1165	130	224.62425152646
1	1167	131	222.4384425652
1	1200	132	216.89077408288
1	1201	133	209.06725129708
1	1203	134	199.13366186868
1	1236	135	187.93188928082
1	1238	136	178.91000631008
1	1271	137	172.06801295645
1	1274	138	167.40590921993
1	1339	139	165.54758173412
1	1340	140	164.20605894726
1	1342	141	161.90006073144
1	1375	142	159.46312758259
1	1376	143	156.56147085882
1	1378	144	153.01063662042
1	1411	145	149.84139493316
1	1413	146	146.4019288632
1	1446	147	148.88418305875
1	1449	148	152.81950495635
1	1514	149	156.76873002634
1	1515	150	161.63260300849
1	1517	151	165.76869870838
1	1550	152	169.54018384513
1	1551	153	179.13206845644
1	1553	154	188.2292331281
1	1586	155	195.52721858126
1	1588	156	202.60579395051
1	1589	157	209.2824880515
1	1624	158	213.99707061567
1	1657	159	216.7585766883
1	1658	160	218.56465464861
1	1660	161	221.58491965188
1	1693	162	226.95601954007
1	1694	163	233.23260576614
1	1696	164	242.11732654196
1	1697	165	250.86886153309
1	1699	166	258.28307995248
1	1732	167	263.99471614008
1	1735	168	268.09186511524
1	1768	169	269.29214319119
1	1769	170	269.40806541912
1	1771	171	269.58037256265
1	1804	172	269.7572556466
1	1805	173	269.96740859561
1	1807	174	270.23478521815
1	1808	175	270.45301290451
1	1810	176	270.62209165471
1	1843	177	270.79940721765
1	1846	178	270.92757384442
1	1879	179	268.81324743033
1	1880	180	264.25769449894
1	1882	181	257.98990956826
1	1915	182	249.92324487117
1	1916	183	243.54216289307
1	1918	184	236.7852107025
1	1919	185	231.37211264246
1	1921	186	227.66318629784
1	1922	187	224.03505916538
1	1957	188	218.79268437925
1	1958	189	212.49473123678
1	1991	190	206.18622654735
1	1993	191	198.47266463867
1	2026	192	188.38237011811
1	2027	193	180.47196521467
1	2029	194	173.20248866728
1	2062	195	168.112901737
1	2064	196	165.35806187469
1	2097	197	163.81108955639
1	2100	198	161.94042615137
1	2101	199	159.5890264085
1	2102	200	157.07286606927
0	188	55	224.39176493134
0	190	56	216.57192099604
0	223	57	208.58828571369
0	226	58	197.89095563851
0	291	59	189.28255978057
0	292	60	181.83513890856
0	294	61	174.9322119374
0	327	62	165.5528859698
0	328	63	153.43616660709
0	330	64	142.77281790173
0	363	65	132.67729873338
0	365	66	124.729024463
0	398	67	117.71729385742
0	401	68	112.71938194125
0	466	69	106.60187617278
0	467	70	98.630717004087
0	469	71	91.978846751706
0	470	72	86.951020215173
0	471	73	84.210423847559
0	473	74	81.608888263453
0	474	75	78.9108015738
0	508	76	75.899780412211
0	509	77	73.605236529986
0	512	78	75.570345392113
0	545	79	79.694297558302
0	546	80	83.818966053165
0	548	81	86.988544727669
0	581	82	89.812813698311
0	582	83	91.681992848594
0	584	84	93.602979383705
0	617	85	96.677907723537
0	619	86	101.36532425516
0	620	87	108.65844318194
0	623	88	119.11145522899
0	688	89	131.20865002795
0	689	90	144.63966146908
0	691	91	155.99504265812
0	724	92	163.73140449309
0	725	93	168.23001179874
0	727	94	173.50234665332
0	760	95	177.95972959914
0	762	96	181.55888728201
0	795	97	184.16294066519
0	798	98	185.87181813156
0	831	99	186.16299703044
0	832	100	183.91664177121
0	834	101	180.79231145995
0	867	102	175.70049565932
0	868	103	170.33226584649
0	870	104	163.06212348854
0	903	105	157.18515666086
0	905	106	152.46546141601
0	938	107	148.59598018722
0	941	108	146.11967448871
0	974	109	144.89681698413
0	975	110	142.21429834859
0	977	111	138.47638003328
0	978	112	134.38199486009
0	979	113	128.12057256204
0	981	114	121.61907134545
0	1014	115	112.18785625976
0	1016	116	102.28642968992
0	1017	117	92.401047257713
0	1020	118	83.231784943572
0	1053	119	76.261937523048
0	1054	120	71.491504996141
0	1056	121	67.966469183642
0	1089	122	66.072698531894
0	1090	123	63.361623250347
0	1092	124	58.918953709273
0	1125	125	53.672134062283
0	1127	126	47.749657863357
0	1160	127	42.333804977393
0	1163	128	36.769105496133
0	1164	129	32.595162462857
0	1165	130	30.122522013928
0	1167	131	30.39191179142
0	1200	132	31.144154393287
0	1201	133	32.204994123512
0	1203	134	33.551950810148
0	1236	135	35.070868276804
0	1238	136	36.294201059085
0	1271	137	37.221949156993
0	1274	138	37.854112570527
0	1339	139	39.214960756377
0	1340	140	43.405149214123
0	1342	141	50.607834999335
0	1375	142	58.219490390178
0	1376	143	67.282689786658
0	1378	144	78.37356709919
0	1411	145	88.272556566806
0	1413	146	96.611761150342
0	1446	147	104.50751055224
0	1449	148	115.71111254286
0	1514	149	126.95429594866
0	1515	150	140.80142165857
0	1517	151	152.5766134275
0	1550	152	162.0987419131
0	1551	153	167.05791061335
0	1553	154	171.67162777977
0	1586	155	175.37287338548
0	1588	156	178.96284299399
0	1589	157	182.34899453686
0	1624	158	184.74004178002
0	1657	159	186.11599573263
0	1658	160	185.65980592805
0	1660	161	183.18840735536
0	1693	162	178.79338619561
0	1694	163	173.65743083287
0	1696	164	166.38731174719
0	1697	165	159.22617487262
0	1699	166	153.15932683134
0	1732	167	148.48565432033
0	1735	168	145.13307164354
0	1768	169	142.02159219422
0	1769	170	136.83407249446
0	1771	171	129.12332782147
0	1804	172	121.20780981483
0	1805	173	111.80346534646
0	1807	174	99.838361487997
0	1808	175	90.072672523153
0	1810	176	82.506398451927
0	1843	177	74.571527010167
0	1846	178	68.836070462025
0	1879	179	65.74587253979
0	1880	180	62.028134147517
0	1882	181	56.91306139515
0	1915	182	50.32994195967
0	1916	183	45.122408689493
0	1918	184	39.608131728612
0	1919	185	35.190559859274
0	1921	186	32.163744437921
0	1922	187	30.175416694546
0	1957	188	30.886262640307
0	1958	189	31.740240968938
0	1991	190	32.595650046931
0	1993	191	33.641579503304
0	2026	192	35.009784800346
0	2027	193	36.082405413015
0	2029	194	37.068118594984
0	2062	195	37.75824709258
0	2064	196	39.80691784818
0	2097	197	44.638819039929
0	2100	198	50.481755354353
0	2101	199	57.826250847514
0	2102	200	65.685368944147
25	183	54.790160186442	0.790160186442
25	210	56.364790420393	0.364790420393
25	286	58.767877621503	0.767877621503
25	314	61.770882640445	0.770882640445
25	358	64.670435225963	0.670435225963
25	385	66.26154931113	0.26154931113
25	429	68.259213737623	0.259213737623
25	502	75.076698129637	1.076698129637
25	540	78.18942322648	0.18942322648
25	568	81.468223555379	0.468223555379
25	612	84.365630271607	0.365630271607
25	679	88.468805023595	0.468805023595
25	711	91.778051215847	0.778051215847
25	755	94.676393620558	0.676393620558
25	782	96.597369830892	0.59736983089199
25	830	98.496740753763	0.49674075376299
25	854	101.875497676362	0.875497676362
25	898	104.756628041605	0.756628041605
25	937	106.768253633192	0.768253633192
25	1005	114.996783105384	0.996783105384
25	1076	121.299687182498	0.29968718249799
25	1116	124.998244512473	0.99824451247299
25	1151	126.797672070119	0.79767207011899
25	1187	131.956038219221	0.956038219221
25	1227	134.671275573438	0.67127557343801
25	1262	136.374164517348	0.37416451734799
25	1298	138.26492919168	0.26492919168001
25	1362	141.498455231168	0.49845523116801
25	1402	144.590692680515	0.59069268051499
25	1433	146.462034940106	0.46203494010601
25	1469	148.167484590754	0.16748459075399
25	1537	151.858623625851	0.85862362585101
25	1573	154.779221946874	0.779221946874
25	1613	157.05303154487	1.05303154487
25	1680	161.574922763928	0.57492276392799
25	1719	166.964091082954	0.96409108295398
25	1795	171.455848900041	0.45584890004099
25	1830	176.183668416579	0.183668416579
25	1870	178.391073921076	0.39107392107599
25	1910	181.885388880345	0.885388880345
25	1942	187.077737245399	1.077737245399
25	2021	191.393254923557	0.39325492355701
25	2049	194.298383005723	0.298383005723
25	2084	196.468829520673	0.46882952067298
9	188	55	0.973
9	190	56	0.973
9	223	57	0.973
9	226	58	0.973
9	291	59	0.973
9	292	60	6.8087388067951
9	294	61	5.3765919895424
9	327	62	5.0872198468577
9	328	63	12.116596179768
9	330	64	4.4169539358651
9	363	65	1.8609108862097
9	365	66	3.00187342189
9	398	67	0.973
9	401	68	0.973
9	466	69	9.9541162485451
9	467	70	0.973
9	469	71	5.6394047897568
9	470	72	0.973
9	471	73	2.4541217597346
9	473	74	0.973
9	474	75	0.973
9	508	76	0.973
9	509	77	0.973
9	512	78	0.973
9	545	79	5.7960465320953
9	546	80	8.1042826975783
9	548	81	2.178798931798
9	581	82	0.973
9	582	83	0.973
9	584	84	0.973
9	617	85	0.973
9	619	86	5.5445370329045
9	620	87	2.34753367192
9	623	88	2.2338668199868
9	688	89	8.2375614766578
9	689	90	11.968577656583
9	691	91	0.973
9	724	92	5.4869023556892
9	725	93	0.973
9	727	94	7.3922330004007
9	760	95	0.973
9	762	96	5.1994450003089
9	795	97	0.973
9	798	98	0.973
9	831	99	0.973
9	832	100	0.973
9	834	101	3.0436830359115
9	867	102	3.5844619509769
9	868	103	4.7713137624781
9	870	104	6.7304231869105
9	903	105	0.973
9	905	106	0.973
9	938	107	0.973
9	941	108	0.973
9	974	109	0.973
9	975	110	0.973
9	977	111	1.5644574365788
9	978	112	5.4528482131016
9	979	113	1.7680142434966
9	981	114	4.4495789632864
9	1014	115	8.8878650236908
9	1016	116	0.973
9	1017	117	0.973
9	1020	118	0.973
9	1053	119	1.6866626715852
9	1054	120	0.973
9	1056	121	1.8619027447899
9	1089	122	5.3776448968703
9	1090	123	4.3714321559161
9	1092	124	9.9893570160484
9	1125	125	0.973
9	1127	126	0.973
9	1160	127	3.9534625412402
9	1163	128	0.973
9	1164	129	6.5776837904057
9	1165	130	11.051156743324
9	1167	131	0.973
9	1200	132	0.973
9	1201	133	0.973
9	1203	134	0.973
9	1236	135	5.4424591704402
9	1238	136	5.4877342119738
9	1271	137	3.8574410669564
9	1274	138	0.973
9	1339	139	0.973
9	1340	140	6.1427861987996
9	1342	141	4.5133928570193
9	1375	142	0.973
9	1376	143	0.973
9	1378	144	0.973
9	1411	145	1.8375960523356
9	1413	146	8.2959626997562
9	1446	147	0.973
9	1449	148	0.973
9	1514	149	0.973
9	1515	150	0.973
9	1517	151	0.973
9	1550	152	2.3074227878461
9	1551	153	0.973
9	1553	154	1.8131369636368
9	1586	155	2.7290354742144
9	1588	156	7.7960391388558
9	1589	157	8.795219160405
9	1624	158	9.3508420655546
9	1657	159	0.973
9	1658	160	0.973
9	1660	161	0.973
9	1693	162	0.973
9	1694	163	4.6428128213528
9	1696	164	3.0681277734197
9	1697	165	0.973
9	1699	166	4.2583374179356
9	1732	167	0.973
9	1735	168	0.973
9	1768	169	0.973
9	1769	170	1.309259129636
9	1771	171	3.0089441046201
9	1804	172	8.0357131470507
9	1805	173	4.2425367133968
9	1807	174	1.8692445956368
9	1808	175	2.9940204109064
9	1810	176	0.973
9	1843	177	0.973
9	1846	178	0.973
9	1879	179	0.973
9	1880	180	0.973
9	1882	181	1.5418664541727
9	1915	182	5.2389077081564
9	1916	183	2.793471711727
9	1918	184	1.9839271855762
9	1919	185	8.6015360002065
9	1921	186	6.8429052935267
9	1922	187	0.973
9	1957	188	0.973
9	1958	189	0.973
9	1991	190	0.973
9	1993	191	0.973
9	2026	192	3.5403590037928
9	2027	193	6.1897830887726
9	2029	194	6.5419933244649
9	2062	195	0.973
9	2064	196	0.973
9	2097	197	0.973
9	2100	198	0.973
9	2101	199	0.973
9	2102	200	1.2436145524087
8	188	55	-0.94516605565974
8	190	56	-2.2
8	223	57	-0.49694397503045
8	226	58	-1.2646277990891
8	291	59	-2.2
8	292	60	3.0973090273328
8	294	61	1.7609854713082
8	327	62	1.3682670899434
8	328	63	3.1397983330535
8	330	64	0.69719291436553
8	363	65	-0.053836167207919
8	365	66	0.26985745760612
8	398	67	-1.5890068587614
8	401	68	-1.0365296761738
8	466	69	2.3407486041542
8	467	70	-2.2
8	469	71	1.1799918137724
8	470	72	-1.6455987513764
8	471	73	0.22954254778887
8	473	74	-2.2
8	474	75	-2.2
8	508	76	-1.0000210962881
8	509	77	-0.99624963764394
8	512	78	-1.8216099519515
8	545	79	2.8897981507471
8	546	80	2.9260542023694
8	548	81	0.23634659223333
8	581	82	-2.2
8	582	83	-2.2
8	584	84	-2.2
8	617	85	-0.33300672410651
8	619	86	3.0865709732752
8	620	87	0.61435685434844
8	623	88	0.4814900609199
8	688	89	2.865275936434
8	689	90	3.2578632701188
8	691	91	-1.3058128991796
8	724	92	1.1724773299647
8	725	93	-1.2026740113925
8	727	94	1.7121200109832
8	760	95	-2.2
8	762	96	1.1439288545805
8	795	97	-2.2
8	798	98	-2.2
8	831	99	-1.9041196880787
8	832	100	-2.2
8	834	101	1.3929929789156
8	867	102	1.3895441708155
8	868	103	1.6606989469146
8	870	104	2.0647864326602
8	903	105	-0.65772707559663
8	905	106	-1.3740734132472
8	938	107	-2.2
8	941	108	-2.2
8	974	109	-1.4167421004968
8	975	110	-0.50746348244138
8	977	111	0.59626377909444
8	978	112	3.0925170442788
8	979	113	0.2647461645538
8	981	114	1.6576016441686
8	1014	115	2.8999471955467
8	1016	116	-1.344300838485
8	1017	117	-2.1171083126566
8	1020	118	-0.63433957458231
8	1053	119	0.16170070245862
8	1054	120	-2.2
8	1056	121	0.46838347974699
8	1089	122	2.3320198603906
8	1090	123	1.3960974601796
8	1092	124	2.9999661500333
8	1125	125	-1.5540052360158
8	1127	126	-1.9998556323582
8	1160	127	1.0978702817228
8	1163	128	-1.2172011429094
8	1164	129	2.0891853572102
8	1165	130	2.9775070331525
8	1167	131	-0.90313570981004
8	1200	132	-2.2
8	1201	133	-2.2
8	1203	134	-1.3647208221955
8	1236	135	2.0032196730608
8	1238	136	1.6357833874645
8	1271	137	0.83865049704335
8	1274	138	-2.017531297449
8	1339	139	-1.2144875649211
8	1340	140	2.0077757372055
8	1342	141	1.1121383195493
8	1375	142	-2.2
8	1376	143	-1.398807679466
8	1378	144	-2.2
8	1411	145	0.39129984541796
8	1413	146	3.3391013782239
8	1446	147	-0.76280119481387
8	1449	148	-0.17504837258021
8	1514	149	-2.2
8	1515	150	-2.2
8	1517	151	-1.3655207913841
8	1550	152	1.4137221355003
8	1551	153	-1.1792090504099
8	1553	154	0.85775977138194
8	1586	155	1.4085532800527
8	1588	156	3.4323566342937
8	1589	157	2.8209398398176
8	1624	158	2.4047742462467
8	1657	159	-0.88850251320829
8	1658	160	-1.9942365641095
8	1660	161	-1.8894115343457
8	1693	162	-0.40532682195771
8	1694	163	1.391724484507
8	1696	164	0.60721035080496
8	1697	165	-1.8084356001437
8	1699	166	1.2130958404082
8	1732	167	-2.2
8	1735	168	-2.2
8	1768	169	-1.9488055314016
8	1769	170	0.093446801649407
8	1771	171	1.5916975733126
8	1804	172	3.4478280111216
8	1805	173	1.2072677953402
8	1807	174	0.11219602474011
8	1808	175	0.56834044353776
8	1810	176	-0.62188131832518
8	1843	177	-2.2
8	1846	178	-2.2
8	1879	179	-1.5347123586855
8	1880	180	-2.1001637991285
8	1882	181	0.77567307697609
8	1915	182	3.1961380697321
8	1916	183	0.95352964976337
8	1918	184	0.35639248078223
8	1919	185	3.0695006392198
8	1921	186	1.8616597253131
8	1922	187	-0.25603923255736
8	1957	188	-1.7021333361122
8	1958	189	-0.6645323610756
8	1991	190	-2.2
8	1993	191	-2.2
8	2026	192	1.5317039579386
8	2027	193	2.3628825045889
8	2029	194	1.9857843925711
8	2062	195	-0.40458283528551
8	2064	196	-1.9748637038749
8	2097	197	-2.2
8	2100	198	-2.2
8	2101	199	-0.5158812756036
8	2102	200	-0.007072041989904
7	188	55	10.193155250615
7	190	56	7.9931552506153
7	223	57	7.4962112755849
7	226	58	6.2315834764958
7	291	59	4.0315834764958
7	292	60	7.1288925038286
7	294	61	8.8898779751369
7	327	62	10.25814506508
7	328	63	13.397943398134
7	330	64	14.095136312499
7	363	65	14.041300145291
7	365	66	14.311157602897
7	398	67	12.722150744136
7	401	68	11.685621067962
7	466	69	14.026369672116
7	467	70	11.826369672116
7	469	71	13.006361485889
7	470	72	11.360762734512
7	471	73	11.590305282301
7	473	74	9.3903052823013
7	474	75	7.1903052823013
7	508	76	6.1902841860132
7	509	77	5.1940345483693
7	512	78	3.3724245964177
7	545	79	6.2622227471648
7	546	80	9.1882769495342
7	548	81	9.4246235417675
7	581	82	7.2246235417675
7	582	83	5.0246235417675
7	584	84	2.8246235417675
7	617	85	2.491616817661
7	619	86	5.5781877909363
7	620	87	6.1925446452847
7	623	88	6.6740347062046
7	688	89	9.5393106426386
7	689	90	12.797173912757
7	691	91	11.491361013578
7	724	92	12.663838343543
7	725	93	11.46116433215
7	727	94	13.173284343133
7	760	95	10.973284343133
7	762	96	12.117213197714
7	795	97	9.9172131977138
7	798	98	7.7172131977138
7	831	99	5.8130935096351
7	832	100	3.6130935096351
7	834	101	5.0060864885507
7	867	102	6.3956306593662
7	868	103	8.0563296062808
7	870	104	10.121116038941
7	903	105	9.4633889633444
7	905	106	8.0893155500971
7	938	107	5.8893155500971
7	941	108	3.6893155500971
7	974	109	2.2725734496003
7	975	110	1.765109967159
7	977	111	2.3613737462534
7	978	112	5.4538907905322
7	979	113	5.718636955086
7	981	114	7.3762385992546
7	1014	115	10.276185794801
7	1016	116	8.9318849563164
7	1017	117	6.8147766436597
7	1020	118	6.1804370690774
7	1053	119	6.342137771536
7	1054	120	4.142137771536
7	1056	121	4.610521251283
7	1089	122	6.9425411116736
7	1090	123	8.3386385718532
7	1092	124	11.338604721886
7	1125	125	9.7845994858706
7	1127	126	7.7847438535124
7	1160	127	8.8826141352352
7	1163	128	7.6654129923258
7	1164	129	9.754598349536
7	1165	130	12.732105382689
7	1167	131	11.828969672878
7	1200	132	9.6289696728785
7	1201	133	7.4289696728785
7	1203	134	6.064248850683
7	1236	135	8.0674685237438
7	1238	136	9.7032519112082
7	1271	137	10.541902408252
7	1274	138	8.5243711108026
7	1339	139	7.3098835458815
7	1340	140	9.317659283087
7	1342	141	10.429797602636
7	1375	142	8.2297976026363
7	1376	143	6.8309899231703
7	1378	144	4.6309899231703
7	1411	145	5.0222897685883
7	1413	146	8.3613911468121
7	1446	147	7.5985899519982
7	1449	148	7.423541579418
7	1514	149	5.223541579418
7	1515	150	3.023541579418
7	1517	151	1.6580207880339
7	1550	152	3.0717429235342
7	1551	153	1.8925338731244
7	1553	154	2.7502936445063
7	1586	155	4.158846924559
7	1588	156	7.5912035588527
7	1589	157	10.41214339867
7	1624	158	12.816917644917
7	1657	159	11.928415131709
7	1658	160	9.9341785675992
7	1660	161	8.0447670332535
7	1693	162	7.6394402112958
7	1694	163	9.0311646958028
7	1696	164	9.6383750466078
7	1697	165	7.8299394464641
7	1699	166	9.0430352868723
7	1732	167	6.8430352868723
7	1735	168	4.6430352868723
7	1768	169	2.6942297554706
7	1769	170	2.78767655712
7	1771	171	4.3793741304326
7	1804	172	7.8272021415542
7	1805	173	9.0344699368944
7	1807	174	9.1466659616345
7	1808	175	9.7150064051722
7	1810	176	9.0931250868471
7	1843	177	6.8931250868471
7	1846	178	4.6931250868471
7	1879	179	3.1584127281615
7	1880	180	1.058248929033
7	1882	181	1.8339220060091
7	1915	182	5.0300600757412
7	1916	183	5.9835897255046
7	1918	184	6.3399822062868
7	1919	185	9.4094828455066
7	1921	186	11.27114257082
7	1922	187	11.015103338262
7	1957	188	9.3129700021501
7	1958	189	8.6484376410745
7	1991	190	6.4484376410745
7	1993	191	4.2484376410745
7	2026	192	5.7801415990131
7	2027	193	8.143024103602
7	2029	194	10.128808496173
7	2062	195	9.7242256608876
7	2064	196	7.7493619570127
7	2097	197	5.5493619570127
7	2100	198	3.3493619570127
7	2101	199	2.8334806814091
7	2102	200	2.8264086394192
4	188	55	73.644354404405
4	190	56	63.896830444339
4	223	57	56.253125388713
4	226	58	49.084638573595
4	291	59	43.125491699753
4	292	60	41.193179107443
4	294	61	38.95744790405
4	327	62	36.169444357538
4	328	63	32.952331040341
4	330	64	28.750528291818
4	363	65	24.330075037261
4	365	66	25.529410272465
4	398	67	28.64719817881
4	401	68	31.418809590926
4	466	69	33.964605609303
4	467	70	37.882108896925
4	469	71	45.860355302655
4	470	72	54.634641888764
4	471	73	62.298782869126
4	473	74	71.803185620515
4	474	75	80.712259803026
4	508	76	87.534078820525
4	509	77	93.407125475138
4	512	78	98.334977947108
4	545	79	101.5129983435
4	546	80	107.15505624007
4	548	81	115.43339327982
4	581	82	123.92467086973
4	582	83	130.43382040805
4	584	84	134.96084189478
4	617	85	137.50573532993
4	619	86	139.75060059724
4	620	87	143.64182433694
4	623	88	145.69496748137
4	688	89	147.90774904172
4	689	90	151.07051513714
4	691	91	155.31342841302
4	724	92	159.12339837474
4	725	93	163.3221041357
4	727	94	166.49045344656
4	760	95	163.99294770879
4	762	96	161.63555467596
4	795	97	159.03241116155
4	798	98	156.90189411977
4	831	99	155.24400355061
4	832	100	153.99517542311
4	834	101	152.30787247761
4	867	102	147.77936545037
4	868	103	141.99387643598
4	870	104	134.70611875955
4	903	105	125.55055478543
4	905	106	116.98997088021
4	938	107	109.67237411116
4	941	108	104.34489786495
4	974	109	101.00754214156
4	975	110	99.208243097653
4	977	111	98.34989594164
4	978	112	96.121160420966
4	979	113	90.905706535567
4	981	114	84.50708083841
4	1014	115	77.453321652602
4	1016	116	67.626397134124
4	1017	117	59.085002396219
4	1020	118	52.568158790549
4	1053	119	46.657922270716
4	1054	120	40.687410112164
4	1056	121	38.552646588144
4	1089	122	37.106715650082
4	1090	123	34.929427132143
4	1092	124	32.314300807977
4	1125	125	28.7583385928
4	1127	126	25.689736510286
4	1160	127	23.248320156431
4	1163	128	20.462594662719
4	1164	129	21.595197864448
4	1165	130	23.720306790597
4	1167	131	26.494086891826
4	1200	132	29.071112427703
4	1201	133	31.168852249294
4	1203	134	32.7873063566
4	1236	135	36.166497156405
4	1238	136	41.608932454589
4	1271	137	48.15489176677
4	1274	138	55.266617286098
4	1339	139	61.017285924185
4	1340	140	68.248890272822
4	1342	141	77.089041393025
4	1375	142	86.984336354903
4	1376	143	94.79237615177
4	1378	144	101.33532860012
4	1411	145	105.52415463159
4	1413	146	110.04791678841
4	1446	147	117.57933106183
4	1449	148	124.42366208493
4	1514	149	131.11032056422
4	1515	150	135.81535767088
4	1517	151	138.5387734049
4	1550	152	140.03221405483
4	1551	153	142.79946023269
4	1553	154	144.4191331168
4	1586	155	146.0361846931
4	1588	156	147.49881770284
4	1589	157	150.01452748423
4	1624	158	153.46509112544
4	1657	159	157.71259217537
4	1658	160	161.66564525722
4	1660	161	164.95781230277
4	1693	162	167.62383211867
4	1694	163	172.01884341539
4	1696	164	180.14707122758
4	1697	165	188.74323798903
4	1699	166	195.72651731655
4	1732	167	203.79171907304
4	1735	168	209.89480929271
4	1768	169	214.03578797555
4	1769	170	216.43868765103
4	1771	171	218.91530892255
4	1804	172	222.30451100474
4	1805	173	228.36199068238
4	1807	174	235.35377613155
4	1808	175	242.43239019807
4	1810	176	249.95084351041
4	1843	177	256.98802223962
4	1846	178	262.32261873705
4	1879	179	265.95463300269
4	1880	180	268.39893181706
4	1882	181	269.10673611842
4	1915	182	269.28595753814
4	1916	183	269.39833122068
4	1918	184	269.53200716136
4	1919	185	269.67364506171
4	1921	186	269.88385691251
4	1922	187	270.13565903378
4	1957	188	270.38174112963
4	1958	189	270.58979684245
4	1991	190	270.78300661953
4	1993	191	270.92706746045
4	2026	192	268.63842866448
4	2027	193	264.16099510803
4	2029	194	257.85321721923
4	2062	195	250.00720406009
4	2064	196	242.47459027569
4	2097	197	236.47175233945
4	2100	198	232.17308611864
4	2101	199	229.57859161325
4	2102	200	227.38371087077
3	188	55	244.02997168375
3	190	56	241.05146372992
3	223	57	238.71581045036
3	226	58	236.52536751499
3	291	59	234.70445725773
3	292	60	231.39916991554
3	294	61	224.63017560543
3	327	62	216.1890982012
3	328	63	206.44882991401
3	330	64	193.72727427539
3	363	65	180.34372312094
3	365	66	167.55924625006
3	398	67	153.59126436519
3	401	68	141.17418560318
3	466	69	129.76878095879
3	467	70	117.42987200233
3	469	71	108.69962593539
3	470	72	99.098307918481
3	471	73	90.711773679293
3	473	74	86.193655921672
3	474	75	83.225644217205
3	508	76	80.952990709678
3	509	77	78.996415777796
3	512	78	77.354727369431
3	545	79	77.177551604677
3	546	80	79.896181240422
3	548	81	83.885103868214
3	581	82	87.976632052514
3	582	83	91.113070416455
3	584	84	93.294418960037
3	617	85	94.520677683259
3	619	86	95.60236761907
3	620	87	99.240560037155
3	623	88	105.08302958408
3	688	89	111.37976973852
3	689	90	120.37980689945
3	691	91	132.45353476978
3	724	92	143.29526956868
3	725	93	155.24319955667
3	727	94	165.65191048887
3	760	95	178.20583368191
3	762	96	188.92246636421
3	795	97	200.75627280834
3	798	98	210.44153455393
3	831	99	217.97825160097
3	832	100	223.65538398382
3	834	101	226.59304038445
3	867	102	228.726851821
3	868	103	231.45294732018
3	870	104	234.88690482169
3	903	105	239.2009639583
3	905	106	243.23467125536
3	938	107	246.68268879844
3	941	108	249.19297081275
3	974	109	250.76551729828
3	975	110	251.60451864478
3	977	111	251.57791363161
3	978	112	250.89811027681
3	979	113	249.30444700969
3	981	114	250.69342314741
3	1014	115	248.53803702829
3	1016	116	245.53526699563
3	1017	117	242.92531063462
3	1020	118	240.93398744395
3	1053	119	239.12802250809
3	1054	120	237.05479188219
3	1056	121	233.61861454817
3	1089	122	229.24085291131
3	1090	123	222.64880214642
3	1092	124	214.73113512919
3	1125	125	203.96495359316
3	1127	126	194.67432419862
3	1160	127	187.28258883134
3	1163	128	178.84840855607
3	1164	129	170.5069941108
3	1165	130	160.98630704821
3	1167	131	148.55951235582
3	1200	132	137.01419654755
3	1201	133	127.61612563724
3	1203	134	120.36529962488
3	1236	135	114.56474611604
3	1238	136	108.60932722569
3	1271	137	101.44637027583
3	1274	138	93.664320112562
3	1339	139	87.371614960723
3	1340	140	84.01127467721
3	1342	141	81.066224332301
3	1375	142	77.769658307105
3	1376	143	75.16845047885
3	1378	144	73.592314668449
3	1411	145	75.56094131438
3	1413	146	77.741276692959
3	1446	147	81.371221951305
3	1449	148	84.670011002323
3	1514	149	87.892805999375
3	1515	150	90.160511176069
3	1517	151	91.473126532403
3	1550	152	92.19292597631
3	1551	153	93.534730116344
3	1553	154	94.506227125092
3	1586	155	96.67182932587
3	1588	156	100.56346671971
3	1589	157	107.72552660908
3	1624	158	117.5490538034
3	1657	159	129.64140925907
3	1658	160	140.89549076224
3	1660	161	150.26807329164
3	1693	162	157.85805593952
3	1694	163	163.64436005453
3	1696	164	167.57267932186
3	1697	165	171.93231043596
3	1699	166	175.47394971305
3	1732	167	179.56429666592
3	1735	168	182.65953931909
3	1768	169	184.75967767256
3	1769	170	185.97833204259
3	1771	171	185.37287532057
3	1804	172	182.59958583127
3	1805	173	177.64291924302
3	1807	174	171.92173631341
3	1808	175	166.12950394914
3	1810	176	159.9773634036
3	1843	177	154.21903641961
3	1846	178	149.85388496591
3	1879	179	146.88190904248
3	1880	180	144.88180753003
3	1882	181	144.11040401914
3	1915	182	142.29840016831
3	1916	183	137.2696778745
3	1918	184	131.28767952924
3	1919	185	124.94938348844
3	1921	186	115.54240316496
3	1922	187	104.27425823845
3	1957	188	93.262084448944
3	1958	189	83.951591300518
3	1991	190	75.305453775837
3	1993	191	68.858731144773
3	2026	192	65.603204800599
3	2027	193	61.949218801015
3	2029	194	56.801508220029
3	2062	195	50.398460162556
3	2064	196	44.251174008226
3	2097	197	39.352321685739
3	2100	198	35.844225811235
3	2101	199	33.726886384714
3	2102	200	31.935667508393
26	179	54.790160122836	0.790160122836
26	214	56.364790516991	0.364790516991
26	246	58.299910491026	0.299910491026
26	282	58.76787757049	0.76787757049
26	362	64.670435231544	0.670435231544
26	389	66.261549460798	0.26154946079799
26	433	68.259213788182	0.259213788182
26	457	68.488252907782	0.488252907782
26	506	75.076698320079	1.076698320079
26	544	78.189423387913	0.189423387913
26	616	84.365630353351	0.36563035335099
26	647	88.159594383645	0.159594383645
26	683	88.468805033196	0.46880503319599
26	751	94.676393382401	0.676393382401
26	786	96.597369914351	0.59736991435099
26	822	98.496740523596	0.496740523596
26	890	104.756627938796	0.756627938796
26	933	106.768253480214	0.768253480214
26	961	108.691114757151	0.691114757151
26	1001	114.99678306186	0.99678306186
26	1040	118.854122146225	0.854122146225
26	1112	124.998244420008	0.99824442000799
26	1155	126.797672103039	0.79767210303899
26	1223	134.671275499116	0.67127549911601
26	1266	136.374164560276	0.374164560276
26	1302	138.264929197949	0.26492919794899
26	1326	138.650267217251	0.65026721725098
26	1398	144.590692665996	0.59069266599599
26	1437	146.462034951571	0.46203495157098
26	1477	148.16748459999	0.16748459998999
26	1501	148.894072601555	0.894072601555
26	1577	154.779221993748	0.779221993748
26	1609	157.053031459757	1.053031459757
26	1644	158.354180638296	0.35418063829599
26	1731	166.964091345078	0.964091345078
26	1763	168.49630243058	0.49630243057999
26	1842	176.18366904987	0.18366904986999
26	1874	178.391074053836	0.39107405383601
26	1954	187.077737781875	1.077737781875
26	1990	189.099555100202	1.099555100202
26	2057	194.298383704483	0.298383704483
26	2092	196.468829680125	0.468829680125
14	188	55	1.4798271114952
14	190	56	6.98025911346
14	223	57	10.445964859994
14	226	58	0.973
14	291	59	0.973
14	292	60	0.973
14	294	61	0.973
14	327	62	0.973
14	328	63	3.190903079399
14	330	64	7.4541263027545
14	363	65	6.4770565940914
14	365	66	10.180482742153
14	398	67	0.973
14	401	68	0.973
14	466	69	0.973
14	467	70	1.7340544719234
14	469	71	9.7022807630567
14	470	72	5.7341505390695
14	471	73	0.973
14	473	74	0.973
14	474	75	0.973
14	508	76	8.0880328994582
14	509	77	0.973
14	512	78	1.3304984121318
14	545	79	0.973
14	546	80	0.973
14	548	81	7.4823501479157
14	581	82	2.8331404189668
14	582	83	0.973
14	584	84	0.973
14	617	85	0.973
14	619	86	8.1100683810922
14	620	87	0.973
14	623	88	2.8321534662002
14	688	89	0.973
14	689	90	0.973
14	691	91	0.973
14	724	92	3.3326611644242
14	725	93	2.8177835177198
14	727	94	3.676547344176
14	760	95	5.3225443768399
14	762	96	11.22926310747
14	795	97	4.3248842861322
14	798	98	0.973
14	831	99	7.0785597641438
14	832	100	0.973
14	834	101	3.3405149864395
14	867	102	0.973
14	868	103	6.0388444047586
14	870	104	0.973
14	903	105	0.973
14	905	106	0.973
14	938	107	7.7222647364122
14	941	108	8.67014041688
14	974	109	0.973
14	975	110	3.4245462703616
14	977	111	0.973
14	978	112	0.973
14	979	113	0.973
14	981	114	3.4518326813477
14	1014	115	2.6869197298292
14	1016	116	8.240048924133
14	1017	117	0.973
14	1020	118	0.973
14	1053	119	0.973
14	1054	120	0.973
14	1056	121	0.973
14	1089	122	0.973
14	1090	123	0.973
14	1092	124	0.973
14	1125	125	3.7872550154786
14	1127	126	6.1977418576389
14	1160	127	6.803530246946
14	1163	128	3.2300695024165
14	1164	129	2.9288752236321
14	1165	130	12.546082718914
14	1167	131	0.973
14	1200	132	0.973
14	1201	133	4.5158679128688
14	1203	134	0.973
14	1236	135	7.9684861487692
14	1238	136	0.973
14	1271	137	4.7099823128241
14	1274	138	7.2082346611959
14	1339	139	0.973
14	1340	140	0.973
14	1342	141	1.4910789024565
14	1375	142	0.973
14	1376	143	0.973
14	1378	144	0.973
14	1411	145	4.1461873321803
14	1413	146	3.7349893987313
14	1446	147	9.9188414958358
14	1449	148	0.973
14	1514	149	0.973
14	1515	150	0.973
14	1517	151	5.3594356899946
14	1550	152	0.973
14	1551	153	1.4527414944347
14	1553	154	4.7757024707256
14	1586	155	9.9733093342051
14	1588	156	6.8647927823248
14	1589	157	0.973
14	1624	158	4.655478815133
14	1657	159	2.9403039164027
14	1658	160	5.0680250225922
14	1660	161	2.1392263799533
14	1693	162	0.973
14	1694	163	0.973
14	1696	164	0.973
14	1697	165	0.973
14	1699	166	4.5653255740875
14	1732	167	3.4554437122958
14	1735	168	6.5961789873456
14	1768	169	4.2547744120199
14	1769	170	0.973
14	1771	171	0.973
14	1804	172	0.973
14	1805	173	2.9657560883365
14	1807	174	6.8968626080693
14	1808	175	11.831888742984
14	1810	176	0.973
14	1843	177	0.973
14	1846	178	0.973
14	1879	179	0.973
14	1880	180	0.973
14	1882	181	6.4006015549934
14	1915	182	4.3082038557096
14	1916	183	8.156809858745
14	1918	184	0.973
14	1919	185	0.973
14	1921	186	4.4373715682235
14	1922	187	0.973
14	1957	188	5.9541566202885
14	1958	189	4.4845459039663
14	1991	190	0.973
14	1993	191	4.1736469071433
14	2026	192	0.973
14	2027	193	0.973
14	2029	194	2.3229285089491
14	2062	195	5.6062626613064
14	2064	196	0.973
14	2097	197	5.2641175944209
14	2100	198	0.973
14	2101	199	9.4563024557357
14	2102	200	0.973
13	188	55	0.022072955151089
13	190	56	2.4944318423513
13	223	57	2.9923384404974
13	226	58	-0.45409266888995
13	291	59	-2.2
13	292	60	-1.5584837250899
13	294	61	-1.6055862844689
13	327	62	-2.2
13	328	63	1.4110244349577
13	330	64	2.953934765188
13	363	65	1.9395853487076
13	365	66	2.6593089295645
13	398	67	-1.7309409719193
13	401	68	-1.7034681952093
13	466	69	-2.2
13	467	70	0.13026334811002
13	469	71	3.1468680519611
13	470	72	1.360888758325
13	471	73	-0.62306641363417
13	473	74	-2.2
13	474	75	-2.2
13	508	76	2.7715836105635
13	509	77	-0.65930125900088
13	512	78	-0.12666128211426
13	545	79	-0.30967081881822
13	546	80	-2.2
13	548	81	2.6969303882215
13	581	82	0.51411605558047
13	582	83	-0.81464389820712
13	584	84	-1.2200919955969
13	617	85	-2.2
13	619	86	3.1898562259739
13	620	87	-0.36432794093831
13	623	88	0.58975626460742
13	688	89	-2.2
13	689	90	-1.3219985882053
13	691	91	-2.0425867340993
13	724	92	1.6918592229486
13	725	93	0.9981440192787
13	727	94	1.2751307019498
13	760	95	1.7412444457877
13	762	96	3.2184841834242
13	795	97	0.77390544502424
13	798	98	-0.58719223807566
13	831	99	1.522380014792
13	832	100	-2.2
13	834	101	0.50846993529339
13	867	102	-1.5151628873987
13	868	103	1.4442594165759
13	870	104	-2.2
13	903	105	-2.2
13	905	106	-2.2
13	938	107	3.0192965014139
13	941	108	2.5935589248547
13	974	109	-0.36216534227849
13	975	110	0.60214885224403
13	977	111	-2.2
13	978	112	-2.2
13	979	113	-2.2
13	981	114	1.3864700880367
13	1014	115	0.74247455655131
13	1016	116	2.8317426904105
13	1017	117	-0.55749842474725
13	1020	118	-0.97526142816835
13	1053	119	-1.980275131354
13	1054	120	-2.2
13	1056	121	-0.45837792626116
13	1089	122	-0.74694337095134
13	1090	123	-1.3411923269741
13	1092	124	-0.16393930232152
13	1125	125	2.6579363215715
13	1127	126	2.8975360275945
13	1160	127	2.355013311957
13	1163	128	0.66137262841221
13	1164	129	0.49301876162644
13	1165	130	3.2384052781854
13	1167	131	-1.5495647920254
13	1200	132	-0.28365342260804
13	1201	133	0.86493362102192
13	1203	134	-0.99938792875037
13	1236	135	1.8531197531847
13	1238	136	-1.708878657897
13	1271	137	0.9221234950237
13	1274	138	1.5132318994729
13	1339	139	-2.2
13	1340	140	-2.2
13	1342	141	-0.072341327963102
13	1375	142	-1.8525929644704
13	1376	143	-2.2
13	1378	144	-2.1402910137898
13	1411	145	2.0641320442082
13	1413	146	1.3610338150756
13	1446	147	3.3329597531119
13	1449	148	-2.0434840837703
13	1514	149	-2.2
13	1515	150	-1.9175845534846
13	1517	151	2.4772938294336
13	1550	152	-1.7755865757237
13	1551	153	0.083814962184989
13	1553	154	2.0008651802782
13	1586	155	3.3602475784719
13	1588	156	1.7421150682494
13	1589	157	-0.76327679129983
13	1624	158	0.95430508209392
13	1657	159	0.34776453851155
13	1658	160	0.95181482820772
13	1660	161	0.04652271370505
13	1693	162	-2.2
13	1694	163	-0.2693408142826
13	1696	164	-2.2
13	1697	165	-2.2
13	1699	166	1.5320790059632
13	1732	167	0.84936166426633
13	1735	168	1.8513062716229
13	1768	169	0.86075917734347
13	1769	170	-2.2
13	1771	171	-2.2
13	1804	172	-2.1019401792409
13	1805	173	1.0197419625474
13	1807	174	2.5145441477653
13	1808	175	3.4036286021583
13	1810	176	-1.3525177354111
13	1843	177	-2.2
13	1846	178	-1.2262172448669
13	1879	179	-2.2
13	1880	180	-0.90075969742611
13	1882	181	2.8580842153169
13	1915	182	1.3388147242367
13	1916	183	2.4351521566277
13	1918	184	-0.92278849485292
13	1919	185	-1.2408182566332
13	1921	186	1.1568722452082
13	1922	187	-2.2
13	1957	188	1.8659896388417
13	1958	189	1.0726311643375
13	1991	190	-0.63979696120564
13	1993	191	0.91855662286337
13	2026	192	-1.238172883098
13	2027	193	-2.2
13	2029	194	0.41361502930522
13	2062	195	1.7077958278824
13	2064	196	-1.1008525288649
[...]
28	1120	124.998244861534	0.99824486153399
28	1147	126.797671642329	0.79767164232899
28	1199	131.956038904268	0.95603890426798
28	1235	134.671276112974	0.671276112974
28	1258	136.374164491891	0.37416449189101
28	1338	138.650267891469	0.65026789146899
28	1374	141.498455836029	0.498455836029
28	1410	144.590693203626	0.59069320362599
28	1445	146.46203519872	0.46203519872
28	1513	148.894072982788	0.894072982788
28	1549	151.858623958769	0.85862395876899
28	1581	154.779222202951	0.77922220295099
28	1621	157.053031750395	1.053031750395
28	1656	158.354180885631	0.354180885631
28	1692	161.574923166779	0.574923166779
28	1727	166.964091312618	0.964091312618
28	1767	168.496302482676	0.49630248267599
28	1799	171.455848947523	0.45584894752301
28	1838	176.183668584068	0.18366858406799
28	1902	181.885388480214	0.885388480214
28	1950	187.077737696415	1.077737696415
28	1986	189.099554969914	1.099554969914
28	2013	191.393254581245	0.393254581245
28	2061	194.298383795899	0.29838379589899
28	2096	196.468830015301	0.46883001530099
24	188	55	3.2476282436272
24	190	56	1.2784674753166
24	223	57	0.973
24	226	58	0.973
24	291	59	0.973
24	292	60	5.8361608308276
24	294	61	1.6057887224129
24	327	62	5.6869803440166
24	328	63	2.5642048899277
24	330	64	6.2898508760196
24	363	65	0.973
24	365	66	0.973
24	398	67	0.973
24	401	68	1.2978802938378
24	466	69	0.973
24	467	70	1.34223555701
24	469	71	2.9516701227089
24	470	72	6.1386630624144
24	471	73	7.1100361295393
24	473	74	1.3866897348432
24	474	75	6.1948921152966
24	508	76	0.973
24	509	77	0.973
24	512	78	0.973
24	545	79	0.973
24	546	80	0.973
24	548	81	1.3729742316139
24	581	82	2.6477527672327
24	582	83	3.2017344256457
24	584	84	4.8286220208807
24	617	85	10.352095073293
24	619	86	0.973
24	620	87	0.973
24	623	88	3.1313597058477
24	688	89	0.973
24	689	90	0.973
24	691	91	7.2370049039174
24	724	92	8.0195509330006
24	725	93	0.973
24	727	94	4.7388517666115
24	760	95	0.973
24	762	96	0.973
24	795	97	0.973
24	798	98	0.973
24	831	99	0.973
24	832	100	1.7536169359033
24	834	101	2.5011182497754
24	867	102	4.5972172923288
24	868	103	7.6070639388332
24	870	104	3.1128174717018
24	903	105	7.1335714907483
24	905	106	0.973
24	938	107	0.973
24	941	108	0.973
24	974	109	4.7041965425305
24	975	110	8.7686895516473
24	977	111	0.973
24	978	112	3.4933243180169
24	979	113	5.2886362347098
24	981	114	0.973
24	1014	115	0.973
24	1016	116	0.973
24	1017	117	6.9855929499113
24	1020	118	6.9187716999855
24	1053	119	0.973
24	1054	120	3.9682833530787
24	1056	121	0.973
24	1089	122	0.973
24	1090	123	0.973
24	1092	124	3.2443042051083
24	1125	125	3.4550035980477
24	1127	126	2.2193045295434
24	1160	127	6.4939581917747
24	1163	128	2.1412006219299
24	1164	129	1.8931931089766
24	1165	130	0.973
24	1167	131	2.0648259418877
24	1200	132	0.973
24	1201	133	0.973
24	1203	134	2.6660864268551
24	1236	135	2.9669612626742
24	1238	136	5.7764475740648
24	1271	137	7.7242431913658
24	1274	138	6.3284447713337
24	1339	139	3.0348119202219
24	1340	140	0.973
24	1342	141	0.973
24	1375	142	0.973
24	1376	143	0.973
24	1378	144	4.0299632473408
24	1411	145	4.4447477764726
24	1413	146	3.082847684167
24	1446	147	5.847110694915
24	1449	148	0.973
24	1514	149	0.973
24	1515	150	0.973
24	1517	151	2.0294276707499
24	1550	152	0.973
24	1551	153	0.973
24	1553	154	1.8852043150272
24	1586	155	2.2109493780183
24	1588	156	3.1358340510506
24	1589	157	5.5770877866407
24	1624	158	2.0254369356067
24	1657	159	0.973
24	1658	160	3.6620477012699
24	1660	161	0.973
24	1693	162	0.973
24	1694	163	0.973
24	1696	164	2.4696853966932
24	1697	165	7.4528498852141
24	1699	166	11.238390451144
24	1732	167	0.973
24	1735	168	9.7786253801122
24	1768	169	0.973
24	1769	170	0.973
24	1771	171	1.8419386631318
24	1804	172	2.7259766606508
24	1805	173	4.5713207874435
24	1807	174	0.973
24	1808	175	6.5829658446177
24	1810	176	0.973
24	1843	177	3.8701479224795
24	1846	178	0.973
24	1879	179	3.5901279888797
24	1880	180	4.2813001815411
24	1882	181	0.973
24	1915	182	0.973
24	1916	183	0.973
24	1918	184	2.1789232287475
24	1919	185	0.973
24	1921	186	1.2188510266481
24	1922	187	4.5509149994152
24	1957	188	2.567796427469
24	1958	189	4.9368851492723
24	1991	190	1.8580866515674
24	1993	191	1.3718527958315
24	2026	192	0.973
24	2027	193	3.8272992066
24	2029	194	0.973
24	2062	195	1.6441564858552
24	2064	196	8.1954697516489
24	2097	197	2.4606941839155
24	2100	198	1.8027330888496
24	2101	199	0.973
24	2102	200	2.1360114729306
23	188	55	0.69694489327054
23	190	56	-0.15905798010062
23	223	57	-2.2
23	226	58	-2.2
23	291	59	-2.2
23	292	60	3.1212589021306
23	294	61	0.12833965034224
23	327	62	2.1128435824066
23	328	63	0.47351364931092
23	330	64	1.8215122731635
23	363	65	-1.7360333345389
23	365	66	-2.2
23	398	67	-2.2
23	401	68	-0.023982130308266
23	466	69	-1.8598256494937
23	467	70	0.17232964525465
23	469	71	1.6180091976421
23	470	72	2.7771813567961
23	471	73	2.4191844165325
23	473	74	-0.10934803467255
23	474	75	1.6799154614564
23	508	76	-1.0349883002079
23	509	77	-2.2
23	512	78	-0.45385791116814
23	545	79	-2.2
23	546	80	-2.2
23	548	81	0.15730175643694
23	581	82	1.2767532352591
23	582	83	1.3295404196251
23	584	84	1.8433241605526
23	617	85	3.3113842312014
23	619	86	-2.2
23	620	87	-2.2
23	623	88	0.92664626610918
23	688	89	-2.2
23	689	90	-1.6874117061337
23	691	91	3.4698809179245
23	724	92	2.7403948168503
23	725	93	-0.75817802102174
23	727	94	1.2479729082217
23	760	95	-2.2
23	762	96	-2.0553106315667
23	795	97	-2.2
23	798	98	-1.8880130266066
23	831	99	-0.60644083470106
23	832	100	1.0171296616318
23	834	101	1.4017304813024
23	867	102	2.2594373711618
23	868	103	2.8638731281972
23	870	104	0.65321915212553
23	903	105	1.9574016356354
23	905	106	-1.2685017604768
23	938	107	-2.2
23	941	108	-1.2074827417964
23	974	109	1.5848313391907
23	975	110	2.6687267945381
23	977	111	-1.9951473723943
23	978	112	0.78409947303589
23	979	113	1.3267463642405
23	981	114	-1.3968666571193
23	1014	115	-2.2
23	1016	116	-1.5982292765984
23	1017	117	2.6494108116021
23	1020	118	2.0481137994211
23	1053	119	-2.2
23	1054	120	1.033943395223
23	1056	121	-2.2
23	1089	122	-2.2
23	1090	123	-2.2
23	1092	124	1.7552041264717
23	1125	125	1.425394582795
23	1127	126	0.49917946534697
23	1160	127	2.3215015028836
23	1163	128	0.24413476837799
23	1164	129	0.12404003768611
23	1165	130	-2.2
23	1167	131	0.32604750159662
23	1200	132	-2.2
23	1201	133	-2.2
23	1203	134	1.3353256711271
23	1236	135	1.2150730006397
23	1238	136	2.2933742766036
23	1271	137	2.4622533967486
23	1274	138	1.5901507949097
23	1339	139	0.40070542696592
23	1340	140	-2.2
23	1342	141	-2.2
23	1375	142	-2.2
23	1376	143	-2.2
23	1378	144	2.0381004766095
23	1411	145	1.7259576568613
23	1413	146	0.80918143002782
23	1446	147	1.7880912822438
23	1449	148	-0.91703192061138
23	1514	149	-2.2
23	1515	150	-2.2
23	1517	151	0.56064723164309
23	1550	152	-2.2
23	1551	153	-0.41206081700511
23	1553	154	0.8151302448241
23	1586	155	0.91542847210076
23	1588	156	1.3414689863566
23	1589	157	2.2092764071422
23	1624	158	0.25804113619961
23	1657	159	-1.031602749081
23	1658	160	1.1066469528712
23	1660	161	-1.1068612187402
23	1693	162	-2.0110789017423
23	1694	163	-1.3339027631329
23	1696	164	1.0349934415426
23	1697	165	3.1846671052044
23	1699	166	3.4971002250677
23	1732	167	-1.8737066550667
23	1735	168	2.7238917253112
23	1768	169	-2.1723963834113
23	1769	170	-1.2519735860924
23	1771	171	0.11696895852219
23	1804	172	0.49152613512706
23	1805	173	1.1400912147635
23	1807	174	-1.5026886245469
23	1808	175	1.866305003874
23	1810	176	-1.107673216844
23	1843	177	0.84841306382885
23	1846	178	-1.2925454109209
23	1879	179	0.7908727485584
23	1880	180	0.95526917930692
23	1882	181	-0.66312997508794
23	1915	182	-1.7870045736638
23	1916	183	-1.9691795604567
23	1918	184	0.41923540965654
23	1919	185	-2.2
23	1921	186	-0.11111692534451
23	1922	187	1.9494082888123
23	1957	188	0.61888485064264
23	1958	189	1.5773130855523
23	1991	190	0.11800568378257
23	1993	191	-0.10635759230639
23	2026	192	-2.2
23	2027	193	1.2186867146178
23	2029	194	-2.2
23	2062	195	0.16995964641683
23	2064	196	3.0837637310615
23	2097	197	0.37332449915916
23	2100	198	0.074968624422764
23	2101	199	-2.1241411606781
23	2102	200	0.34281310877683
22	188	55	9.5186085043271
22	190	56	9.3595505242265
22	223	57	7.1595505242265
22	226	58	4.9595505242265
22	291	59	2.7595505242265
22	292	60	5.8808094263571
22	294	61	6.0091490766994
22	327	62	8.121992659106
22	328	63	8.5955063084169
22	330	64	10.41701858158
22	363	65	8.6809852470416
22	365	66	6.4809852470416
22	398	67	4.2809852470416
22	401	68	4.2570031167333
22	466	69	2.3971774672395
22	467	70	2.5695071124942
22	469	71	4.1875163101363
22	470	72	6.9646976669324
22	471	73	9.3838820834649
22	473	74	9.2745340487923
22	474	75	10.954449510249
22	508	76	9.9194612100409
22	509	77	7.7194612100409
22	512	78	7.2656032988727
22	545	79	5.0656032988727
22	546	80	2.8656032988727
22	548	81	3.0229050553097
22	581	82	4.2996582905687
22	582	83	5.6291987101939
22	584	84	7.4725228707464
22	617	85	10.783907101948
22	619	86	8.5839071019478
22	620	87	6.3839071019478
22	623	88	7.310553368057
22	688	89	5.110553368057
22	689	90	3.4231416619233
22	691	91	6.8930225798478
22	724	92	9.6334173966981
22	725	93	8.8752393756764
22	727	94	10.123212283898
22	760	95	7.9232122838981
22	762	96	5.8679016523314
22	795	97	3.6679016523314
22	798	98	1.7798886257248
22	831	99	1.1734477910237
22	832	100	2.1905774526555
22	834	101	3.5923079339579
22	867	102	5.8517453051196
22	868	103	8.7156184333168
22	870	104	9.3688375854423
22	903	105	11.326239221078
22	905	106	10.057737460601
22	938	107	7.857737460601
22	941	108	6.6502547188045
22	974	109	8.2350860579953
22	975	110	10.903812852533
22	977	111	8.9086654801391
22	978	112	9.692764953175
22	979	113	11.019511317416
22	981	114	9.6226446602962
22	1014	115	7.4226446602962
22	1016	116	5.8244153836978
22	1017	117	8.4738261952999
22	1020	118	10.521939994721
22	1053	119	8.321939994721
22	1054	120	9.3558833899441
22	1056	121	7.1558833899441
22	1089	122	4.9558833899441
22	1090	123	2.7558833899441
22	1092	124	4.5110875164157
22	1125	125	5.9364820992107
22	1127	126	6.4356615645577
22	1160	127	8.7571630674413
22	1163	128	9.0012978358193
22	1164	129	9.1253378735054
22	1165	130	6.9253378735054
22	1167	131	7.251385375102
22	1200	132	5.051385375102
22	1201	133	2.851385375102
22	1203	134	4.1867110462291
22	1236	135	5.4017840468688
22	1238	136	7.6951583234723
22	1271	137	10.157411720221
22	1274	138	11.747562515131
22	1339	139	12.148267942097
22	1340	140	9.9482679420965
22	1342	141	7.7482679420965
22	1375	142	5.5482679420965
22	1376	143	3.3482679420965
22	1378	144	5.3863684187061
22	1411	145	7.1123260755674
22	1413	146	7.9215075055952
22	1446	147	9.709598787839
22	1449	148	8.7925668672276
22	1514	149	6.5925668672276
22	1515	150	4.3925668672276
22	1517	151	4.9532140988707
22	1550	152	2.7532140988707
22	1551	153	2.3411532818656
22	1553	154	3.1562835266897
22	1586	155	4.0717119987905
22	1588	156	5.4131809851471
22	1589	157	7.6224573922893
22	1624	158	7.8804985284889
22	1657	159	6.8488957794078
22	1658	160	7.9555427322791
22	1660	161	6.8486815135388
22	1693	162	4.8376026117965
22	1694	163	3.5036998486636
22	1696	164	4.5386932902062
22	1697	165	7.7233603954106
22	1699	166	11.220460620478
22	1732	167	9.3467539654117
22	1735	168	12.070645690723
22	1768	169	9.8982493073116
22	1769	170	8.6462757212192
22	1771	171	8.7632446797414
22	1804	172	9.2547708148684
22	1805	173	10.394862029632
22	1807	174	8.8921734050851
22	1808	175	10.758478408959
22	1810	176	9.6508051921151
22	1843	177	10.499218255944
22	1846	178	9.2066728450231
22	1879	179	9.9975455935815
22	1880	180	10.952814772888
22	1882	181	10.2896847978
22	1915	182	8.5026802241367
22	1916	183	6.53350066368
22	1918	184	6.9527360733366
22	1919	185	4.7527360733366
22	1921	186	4.641619147992
22	1922	187	6.5910274368043
22	1957	188	7.209912287447
22	1958	189	8.7872253729993
22	1991	190	8.9052310567818
22	1993	191	8.7988734644754
22	2026	192	6.5988734644754
22	2027	193	7.8175601790932
22	2029	194	5.6175601790932
22	2062	195	5.7875198255101
22	2064	196	8.8712835565715
22	2097	197	9.2446080557307
22	2100	198	9.3195766801535
22	2101	199	7.1954355194753
22	2102	200	7.5382486282522
21	188	55	188.80442579556
21	190	56	197.29377650504
21	223	57	205.64126835189
21	226	58	212.02664866192
21	291	59	216.44991743512
21	292	60	218.90328657306
21	294	61	223.4544509539
21	327	62	228.10493752033
21	328	63	234.39055587855
21	330	64	241.04262693033
21	363	65	249.10436817814
21	365	66	255.82259146724
21	398	67	260.83823252455
21	401	68	264.15129135007
21	466	69	267.44579038062
21	467	70	269.14158270316
21	469	71	269.30478844484
21	470	72	269.39833934113
21	471	73	269.55393365071
21	473	74	269.7635735696
21	474	75	269.97077060686
21	508	76	270.21549767038
21	509	77	270.43710265486
21	512	78	270.60955870317
21	545	79	270.77187537262
21	546	80	270.88504310589
21	548	81	270.90220566875
21	581	82	268.82512799112
21	582	83	265.49451160713
21	584	84	261.13400196058
21	617	85	255.34561008823
21	619	86	246.99214214964
21	620	87	240.34284592648
21	623	88	235.39772141874
21	688	89	229.73479493059
21	689	90	225.77604015786
21	691	91	222.50135634095
21	724	92	215.67134345353
21	725	93	206.12598592611
21	727	94	197.33187585138
21	760	95	187.30120069253
21	762	96	179.4504151508
21	795	97	173.63615247528
21	798	98	170.00177941687
21	831	99	168.23816090104
21	832	100	167.07543969383
21	834	101	165.54179421016
21	867	102	164.44652340972
21	868	103	162.66236517992
21	870	104	160.00503107792
21	903	105	157.1485348003
21	905	106	153.69523978058
21	938	107	150.62870251216
21	941	108	148.14350115676
21	974	109	146.73411925176
21	975	110	149.46321041444
21	977	111	153.07671233609
21	978	112	156.02902638138
21	979	113	159.24118943461
21	981	114	162.89303359771
21	1014	115	166.08195892516
21	1016	116	168.61932529396
21	1017	117	172.89549902169
21	1020	118	180.50172178094
21	1053	119	189.8859126234
21	1054	120	197.30799192904
21	1056	121	205.65221317294
21	1089	122	212.03432288002
21	1090	123	216.45432105028
21	1092	124	218.90426972128
21	1125	125	222.3954049265
21	1127	126	226.98965444533
21	1160	127	231.97021945879
21	1163	128	238.74739684037
21	1164	129	245.71351036686
21	1165	130	252.77561860435
21	1167	131	258.13514461005
21	1200	132	263.746999108
21	1201	133	267.65627137416
21	1203	134	269.2636077765
21	1236	135	269.35714068285
21	1238	136	269.47781883709
21	1271	137	269.64973194857
21	1274	138	269.87665284871
21	1339	139	270.13909839426
21	1340	140	270.41049586956
21	1342	141	270.63274440869
21	1375	142	270.80584401165
21	1376	143	270.92979467844
21	1378	144	269.24115874334
21	1411	145	265.0687511488
21	1413	146	259.55937618114
21	1446	147	253.42319025634
21	1449	148	245.90190679164
21	1514	149	239.09097780932
21	1515	150	233.98422054243
21	1517	151	230.58163499096
21	1550	152	226.74475891472
21	1551	153	224.40474614075
21	1553	154	222.08454310512
21	1586	155	218.95711142854
21	1588	156	214.92261928762
21	1589	157	209.55892063987
21	1624	158	202.00614076427
21	1657	159	194.19767852796
21	1658	160	187.41138907423
21	1660	161	179.52856861943
21	1693	162	172.74249147295
21	1694	163	167.94910978879
21	1696	164	165.41026555648
21	1697	165	164.02644815433
21	1699	166	161.67164692963
21	1732	167	158.2506031018
21	1735	168	155.40083997308
21	1768	169	151.72058037101
21	1769	170	148.70266997995
21	1771	171	146.88502239948
21	1804	172	149.78914428036
21	1805	173	152.85615694612
21	1807	174	156.30099357596
21	1808	175	159.24784218033
21	1810	176	162.81318055604
21	1843	177	166.01143822781
21	1846	178	169.49462625445
21	1879	179	168.39021772501
21	1880	180	166.24244285736
21	1882	181	163.88944730671
21	1915	182	161.67891211106
21	1916	183	159.85227949188
21	1918	184	158.4486861407
21	1919	185	156.95502835641
21	1921	186	154.55639819741
21	1922	187	150.38217059733
21	1957	188	144.41992561163
21	1958	189	137.89783724297
21	1991	190	129.94891108226
21	1993	191	121.89323695196
21	2026	192	113.93377392494
21	2027	193	107.96443142075
21	2029	194	100.89266462489
21	2062	195	94.368780733021
21	2064	196	88.834283633596
21	2097	197	80.350840882245
21	2100	198	71.510394885975
21	2101	199	62.598257794569
21	2102	200	55.717397216588
20	188	55	171.96334243808
20	190	56	176.26880073346
20	223	57	180.50231390162
20	226	58	183.74072277007
20	291	59	185.98402733882
20	292	60	185.38271287368
20	294	61	181.65862205957
20	327	62	177.85325867254
20	328	63	172.7099125681
20	330	64	167.26670845026
20	363	65	160.67001054738
20	365	66	155.1726758997
20	398	67	151.0685167823
20	401	68	148.35753319518
20	466	69	145.66173657038
20	467	70	144.00903213628
20	469	71	141.45571709344
20	470	72	137.26931448445
20	471	73	130.30646913072
20	473	74	120.92508276058
20	474	75	111.65301534318
20	508	76	100.70147925036
20	509	77	90.784656194893
20	512	78	83.067248033046
20	545	79	75.803577075476
20	546	80	70.739321011524
20	548	81	67.876617006263
20	581	82	65.755568139347
20	582	83	63.037487461286
20	584	84	59.478921823476
20	617	85	54.755076657479
20	619	86	47.937900140894
20	620	87	42.511480072292
20	623	88	38.475816451673
20	688	89	33.854362253968
20	689	90	30.623664504246
20	691	91	30.383380924352
20	724	92	31.309504516918
20	725	93	32.603818444484
20	727	94	33.796266094304
20	760	95	35.156387234207
20	762	96	36.220923689735
20	795	97	37.0093154433
20	798	98	37.50212251249
20	831	99	37.741262429606
20	832	100	37.898922972761
20	834	101	39.233037837411
20	867	102	42.654068856073
20	868	103	48.226809993571
20	870	104	56.526878238097
20	903	105	65.449020932389
20	905	106	76.235238710053
20	938	107	85.813435363248
20	941	108	93.089538316908
20	974	109	98.386420645271
20	975	110	106.15596325919
20	977	111	116.44336499554
20	978	112	124.84840843937
20	979	113	133.99322487724
20	981	114	144.38978444715
20	1014	115	153.46844461175
20	1016	116	160.43865058791
20	1017	117	164.02312672927
20	1020	118	167.75254386265
20	1053	119	172.51182919445
20	1054	120	176.27601022654
20	1056	121	180.50786467601
20	1089	122	183.74461482579
20	1090	123	185.98626067586
20	1092	124	185.38190839093
20	1125	125	182.52520987147
20	1127	126	178.76586369121
20	1160	127	174.69040632171
20	1163	128	169.14483118524
20	1164	129	163.44465487359
20	1165	130	157.66592876864
20	1167	131	153.28037819396
20	1200	132	148.68835425522
20	1201	133	145.48950584677
20	1203	134	143.29855200158
20	1236	135	139.11295444233
20	1238	136	133.71260704015
20	1271	137	126.01949530134
20	1274	138	115.86478502041
20	1339	139	104.12034685701
20	1340	140	91.975309837238
20	1342	141	82.029687711083
20	1375	142	74.283480478546
20	1376	143	68.736688139626
20	1378	144	66.095086420267
20	1411	145	62.69002887048
20	1413	146	58.193886438773
20	1446	147	53.186210238248
20	1449	148	47.048170637558
20	1514	149	41.489843789866
20	1515	150	37.322273390158
20	1517	151	34.545459438433
20	1550	152	31.41422559923
20	1551	153	30.128978054684
20	1553	154	30.439899202978
20	1586	155	30.863966962083
20	1588	156	31.411028646639
20	1589	157	32.138325643436
20	1624	158	33.162453671824
20	1657	159	34.221251249212
20	1658	160	35.141446111606
20	1660	161	36.210326378671
20	1693	162	37.130492453015
20	1694	163	37.780456653531
20	1696	164	39.643861903823
20	1697	165	43.966155764885
20	1699	166	51.321275639561
20	1732	167	62.00675821289
20	1735	168	70.907870207554
20	1768	169	82.403002051041
20	1769	170	91.829314753989
20	1771	171	98.816031957934
20	1804	172	107.08387548695
20	1805	173	115.81545834131
20	1807	174	125.62268111182
20	1808	175	134.01216480569
20	1810	176	144.16244810215
20	1843	177	153.26767683574
20	1846	178	163.53412776401
20	1879	179	173.12549392453
20	1880	180	182.89094126629
20	1882	181	193.58948071354
20	1915	182	203.64028509504
20	1916	183	211.94557114904
20	1918	184	218.32739317638
20	1919	185	225.11871784399
20	1921	186	229.0123844224
20	1922	187	231.03595977296
20	1957	188	233.84534186324
20	1958	189	236.91851955018
20	1991	190	240.66401656454
20	1993	191	244.45981272539
20	2026	192	248.21027466213
20	2027	193	251.02300107009
20	2029	194	254.35518467384
20	2062	195	253.70681933855
20	2064	196	252.01566744207
20	2097	197	249.42341921429
20	2100	198	246.72208307773
20	2101	199	243.99884060907
20	2102	200	241.89628635585

