version 2
run General-0-20220422-10:35:55-1379
attr configname General
attr datetime 20220422-10:35:55
attr experiment General
attr inifile omnetpp.ini
attr iterationvars ""
attr iterationvarsf ""
attr measurement ""
attr network FLScenario
attr processid 1379
attr repetition 0
attr replication #0
attr resultdir results
attr runnumber 0
attr seedset 0
param *.playgroundSizeX 2500m
param *.playgroundSizeY 2500m
param *.playgroundSizeZ 50m
param *.annotations.draw true
param *.manager.updateInterval 1s
param *.manager.host "\"localhost\""
param *.manager.port 9999
param *.manager.autoShutdown true
param *.manager.launchConfig "xmldoc(\"eight.launchd.xml\")"
param *.connectionManager.sendDirect true
param *.connectionManager.maxInterfDist 2600m
param *.connectionManager.drawMaxIntfDist false
param *.**.nic.mac1609_4.useServiceChannel false
param *.**.nic.mac1609_4.txPower 20mW
param *.**.nic.mac1609_4.bitrate 6Mbps
param *.**.nic.phy80211p.minPowerLevel -110dBm
param *.**.nic.phy80211p.useNoiseFloor true
param *.**.nic.phy80211p.noiseFloor -98dBm
param *.**.nic.phy80211p.decider "xmldoc(\"config.xml\")"
param *.**.nic.phy80211p.analogueModels "xmldoc(\"config.xml\")"
param *.**.nic.phy80211p.usePropagationDelay true
param *.**.nic.phy80211p.antenna "xmldoc(\"antenna.xml\", \"/root/Antenna[@id='monopole']\")"
param *.node[*].nic.phy80211p.antennaOffsetY "0 m"
param *.node[*].nic.phy80211p.antennaOffsetZ "1.895 m"
param *.node[*].applType "\"CarAppLayer\""
param *.node[*].appl.headerLength "80 bit"
param *.node[*].appl.sendBeacons false
param *.node[*].appl.dataOnSch false
param *.node[*].appl.beaconInterval 1s
param *.node[*].veinsmobility.x 0
param *.node[*].veinsmobility.y 0
param *.node[*].veinsmobility.z 0
param *.node[*].veinsmobility.setHostSpeed false
param *.node[*].veinsmobility.accidentCount 0
param *.node[*].veinsmobility.accidentStart 20s
param *.node[*].veinsmobility.accidentDuration 30s

vector 0 FLScenario.node[0].veinsmobility posx ETV
vector 1 FLScenario.node[0].veinsmobility posy ETV
vector 2 FLScenario.node[0].veinsmobility speed ETV
vector 3 FLScenario.node[1].veinsmobility posx ETV
vector 4 FLScenario.node[1].veinsmobility posy ETV
vector 5 FLScenario.node[0].veinsmobility acceleration ETV
vector 6 FLScenario.node[0].veinsmobility co2emission ETV
vector 7 FLScenario.node[1].veinsmobility speed ETV
vector 8 FLScenario.node[1].veinsmobility acceleration ETV
vector 9 FLScenario.node[1].veinsmobility co2emission ETV
vector 10 FLScenario.node[2].veinsmobility posx ETV
vector 11 FLScenario.node[2].veinsmobility posy ETV
vector 12 FLScenario.node[2].veinsmobility speed ETV
vector 13 FLScenario.node[2].veinsmobility acceleration ETV
vector 14 FLScenario.node[2].veinsmobility co2emission ETV
vector 15 FLScenario.node[3].veinsmobility posx ETV
vector 16 FLScenario.node[3].veinsmobility posy ETV
vector 17 FLScenario.node[3].veinsmobility speed ETV
vector 18 FLScenario.node[3].veinsmobility acceleration ETV
vector 19 FLScenario.node[3].veinsmobility co2emission ETV
vector 20 FLScenario.node[4].veinsmobility posx ETV
vector 21 FLScenario.node[4].veinsmobility posy ETV
vector 22 FLScenario.node[4].veinsmobility speed ETV
vector 23 FLScenario.node[4].veinsmobility acceleration ETV
vector 24 FLScenario.node[4].veinsmobility co2emission ETV
vector 25 FLScenario.node[5].veinsmobility posx ETV
vector 26 FLScenario.node[5].veinsmobility posy ETV
vector 27 FLScenario.node[5].veinsmobility speed ETV
vector 28 FLScenario.node[5].veinsmobility acceleration ETV
vector 29 FLScenario.node[5].veinsmobility co2emission ETV
vector 30 FLScenario.node[6].veinsmobility posx ETV
vector 31 FLScenario.node[6].veinsmobility posy ETV
vector 32 FLScenario.node[6].veinsmobility speed ETV
vector 33 FLScenario.node[7].veinsmobility posx ETV
vector 34 FLScenario.node[7].veinsmobility posy ETV
vector 35 FLScenario.node[6].veinsmobility acceleration ETV
vector 36 FLScenario.node[6].veinsmobility co2emission ETV
vector 37 FLScenario.node[7].veinsmobility speed ETV
vector 38 FLScenario.node[7].veinsmobility acceleration ETV
vector 39 FLScenario.node[7].veinsmobility co2emission ETV
vector 40 FLScenario.node[8].veinsmobility posx ETV
vector 41 FLScenario.node[8].veinsmobility posy ETV
vector 42 FLScenario.node[8].veinsmobility speed ETV
vector 43 FLScenario.node[8].veinsmobility acceleration ETV
vector 44 FLScenario.node[8].veinsmobility co2emission ETV
vector 45 FLScenario.node[9].veinsmobility posx ETV
vector 46 FLScenario.node[9].veinsmobility posy ETV
vector 47 FLScenario.node[9].veinsmobility speed ETV
vector 48 FLScenario.node[9].veinsmobility acceleration ETV
vector 49 FLScenario.node[9].veinsmobility co2emission ETV
vector 50 FLScenario.node[10].veinsmobility posx ETV
vector 51 FLScenario.node[10].veinsmobility posy ETV
vector 52 FLScenario.node[10].veinsmobility speed ETV
vector 53 FLScenario.node[10].veinsmobility acceleration ETV
vector 54 FLScenario.node[10].veinsmobility co2emission ETV
vector 55 FLScenario.node[11].veinsmobility posx ETV
vector 56 FLScenario.node[11].veinsmobility posy ETV
vector 57 FLScenario.node[11].veinsmobility speed ETV
vector 58 FLScenario.node[11].veinsmobility acceleration ETV
vector 59 FLScenario.node[11].veinsmobility co2emission ETV
vector 60 FLScenario.node[2].appl Delay ETV
vector 61 FLScenario.node[3].appl Delay ETV
vector 62 FLScenario.node[4].appl Delay ETV
vector 63 FLScenario.node[5].appl Delay ETV
vector 64 FLScenario.node[6].appl Delay ETV
vector 65 FLScenario.node[8].appl Delay ETV
vector 66 FLScenario.node[1].appl Delay ETV
vector 67 FLScenario.node[7].appl Delay ETV
vector 68 FLScenario.node[9].appl Delay ETV
vector 69 FLScenario.node[10].appl Delay ETV
vector 70 FLScenario.node[11].appl Delay ETV
vector 71 FLScenario.node[0].appl Delay ETV
71	199	48.762339120069	0.762339120069
71	245	51.465676144701	0.465676144701
71	355	54.25922085885	0.25922085885
71	435	59.077007999023	1.077007999023
71	504	61.666855036023	0.666855036023
71	591	65.686767542246	0.686767542246
71	660	67.373335555466	0.373335555466
71	730	70.87549665267	0.87549665266999
71	820	73.285723327396	0.285723327396
71	882	76.956442494594	0.956442494594
71	964	79.957570891454	0.957570891454
6	4	3	3.2859477348878
6	5	4	4.3836467506079
6	6	5	2.4478779396277
6	7	6	6.2904571748034
6	8	7	2.7614469832265
6	9	8	1.3694181060164
6	10	9	0.973
6	11	10	2.7142276591815
6	12	11	6.61602282113
6	13	12	2.1405052807173
6	14	13	0.973
6	15	14	0.973
6	16	15	2.8276062142868
6	17	16	7.8663656142152
6	18	17	0.973
6	19	18	0.973
6	20	19	3.2773040756658
6	21	20	5.1503416566172
6	22	21	8.0056386150383
6	23	22	0.973
6	24	23	0.973
6	25	24	0.973
6	26	25	3.3879501069696
6	27	26	1.5949677230874
6	28	27	6.6209330550723
6	29	28	3.4103352681916
6	30	29	10.219545043945
6	31	30	3.9793378034698
6	32	31	0.973
6	33	32	0.973
6	34	33	0.973
6	35	34	10.894852959368
6	36	35	2.0751296152744
6	37	36	0.973
6	38	37	0.973
6	39	38	0.973
6	40	39	0.973
6	41	40	7.7774599006918
6	42	41	6.2791689165238
6	43	42	2.5899963881197
6	44	43	6.4160057576922
6	45	44	0.973
6	46	45	0.973
6	48	46	0.973
6	123	47	0.973
6	125	48	4.9023541492279
6	200	49	2.4703709771211
6	201	50	5.7550252763414
6	203	51	2.4913395968713
6	278	52	6.4909091857247
6	279	53	0.973
6	281	54	3.2969412810683
6	356	55	0.973
6	357	56	0.973
6	358	57	0.973
6	360	58	1.8310199273634
6	361	59	1.9547970019889
6	436	60	7.8100700828732
6	438	61	9.4001839659414
6	513	62	1.374267372854
6	514	63	0.973
6	515	64	0.973
6	517	65	0.973
6	592	66	1.7327467757992
6	594	67	4.5342025085574
6	669	68	7.8437355836821
6	670	69	7.9068393168235
6	672	70	0.973
6	747	71	0.973
6	748	72	0.973
6	750	73	0.973
6	825	74	0.973
6	826	75	1.252781649857
6	828	76	5.556012886884
6	903	77	5.9144452960735
6	904	78	2.7587713448541
6	906	79	4.2721397924694
6	981	80	7.5474829449939
6	982	81	0.973
6	983	82	0.973
6	984	83	3.6046216890199
6	985	84	1.8866081931644
6	986	85	7.6345289903808
6	987	86	14.624011620689
6	988	87	0.973
6	989	88	8.3886110170233
6	990	89	0.973
6	991	90	3.520341046347
6	992	91	0.973
6	993	92	0.973
6	994	93	0.973
6	995	94	0.973
6	996	95	3.7623075488541
6	997	96	4.6624232670494
6	998	97	3.5168448058341
6	999	98	6.7135968674856
6	1000	99	2.8953619380998
6	1001	100	0.973
6	1002	101	0.973
6	1003	102	2.5912543593005
6	1004	103	2.8774749960424
6	1005	104	9.2668677066827
6	1006	105	0.973
6	1007	106	0.973
6	1008	107	0.973
6	1009	108	0.973
6	1010	109	4.3894344417662
6	1011	110	10.700837461292
6	1012	111	7.9902740915162
6	1013	112	1.9220597248099
6	1014	113	0.973
6	1015	114	0.973
6	1016	115	11.542000124054
6	1017	116	6.63620671808
6	1018	117	0.973
6	1019	118	1.9781523529483
6	1020	119	0.973
6	1021	120	0.973
6	1022	121	2.3737713100893
6	1023	122	3.930655961273
6	1024	123	2.6129058081238
6	1025	124	0.973
6	1026	125	0.973
6	1027	126	6.4120040068725
6	1028	127	0.973
6	1029	128	1.671592116712
6	1030	129	0.973
6	1031	130	0.973
6	1032	131	4.3041954544174
6	1033	132	1.3839756410998
6	1034	133	3.169921350396
6	1035	134	0.973
6	1036	135	0.973
6	1037	136	0.973
6	1038	137	5.9867868924892
6	1039	138	6.5933462022911
6	1040	139	10.570900234507
6	1041	140	0.973
6	1042	141	1.6504239382364
6	1043	142	0.973
6	1044	143	0.973
6	1045	144	1.635256848716
6	1046	145	0.973
6	1047	146	9.5154914052299
6	1048	147	0.973
6	1049	148	0.973
6	1050	149	0.973
6	1051	150	1.2264568909413
6	1052	151	1.9111704096793
6	1053	152	0.973
6	1054	153	0.973
6	1055	154	2.778444895939
6	1056	155	5.8209436232862
6	1057	156	11.042655884998
6	1058	157	0.973
6	1059	158	0.973
6	1060	159	0.973
6	1061	160	1.2379691002451
6	1062	161	0.973
6	1063	162	4.1286327569926
6	1064	163	0.973
6	1065	164	4.6659997793927
6	1066	165	5.899771653714
6	1067	166	6.5895701481659
6	1068	167	3.5697636820352
6	1069	168	8.7694228848202
5	4	3	1.6019466919824
5	5	4	1.7881237204419
5	6	5	0.53870215581264
5	7	6	2.0600929979701
5	8	7	0.45984822009923
5	9	8	-0.12535894589016
5	10	9	-2.0087457660586
5	11	10	0.57805247465149
5	12	11	1.9861040277174
5	13	12	0.16815966548991
5	14	13	-1.9444254201837
5	15	14	-1.9472459845711
5	16	15	0.75658675527666
5	17	16	2.5968361232663
5	18	17	-2.2
5	19	18	-2.2
5	20	19	1.1394024336019
5	21	20	1.7688942309469
5	22	21	2.403778069621
5	23	22	-2.2
5	24	23	-1.7821515707066
5	25	24	-2.2
5	26	25	1.3652165213134
5	27	26	0.11539556575008
5	28	27	2.4469433544436
5	29	28	0.78872043557931
5	30	29	2.8456896569114
5	31	30	0.66341550600263
5	32	31	-0.78134687354323
5	33	32	-2.2
5	34	33	-1.9938711483264
5	35	34	3.3650341212051
5	36	35	0.10371357340551
5	37	36	-2.2
5	38	37	-2.2
5	39	38	-0.62092717389273
5	40	39	-2.2
5	41	40	3.4387840628624
5	42	41	2.0073068322381
5	43	42	0.37949355796445
5	44	43	1.6476727320305
5	45	44	-1.9534815771117
5	46	45	-2.2
5	48	46	-1.6742836041391
5	123	47	-1.5323237795848
5	125	48	2.222130478709
5	200	49	0.58302525058389
5	201	50	1.9207792988745
5	203	51	0.3802298103692
5	278	52	1.7637887930032
5	279	53	-2.2
5	281	54	0.70867948505827
5	356	55	-2.2
5	357	56	-2.2
5	358	57	-2.2
5	360	58	0.61911381187383
5	361	59	0.6181903402321
5	436	60	3.4085870593553
5	438	61	2.9881128562847
5	513	62	-0.13810409972046
5	514	63	-2.2
5	515	64	-2.2
5	517	65	-2.2
5	592	66	0.39370163541753
5	594	67	2.0293596078409
5	669	68	2.8212333653355
5	670	69	2.228661759058
5	672	70	-0.33383986417391
5	747	71	-2.2
5	748	72	-2.2
5	750	73	-2.2
5	825	74	-2.2
5	826	75	0.055328508489765
5	828	76	3.1642092098482
5	903	77	2.3330570784165
5	904	78	0.58863564580679
5	906	79	1.142044322798
5	981	80	2.0544986001914
5	982	81	-1.241278416681
5	983	82	-1.2334807922598
5	984	83	0.80619768379256
5	985	84	0.083814962184988
5	986	85	2.0008651802782
5	987	86	3.3602475784719
5	988	87	-1.6117687621216
5	989	88	1.6679154098533
5	990	89	-2.2
5	991	90	0.45951312118678
5	992	91	-2.2
5	993	92	-2.2
5	994	93	-2.2
5	995	94	-1.6171015294967
5	996	95	1.3891687731957
5	997	96	1.5320790059632
5	998	97	0.84936166426633
5	999	98	1.8513062716229
5	1000	99	0.39496118660512
5	1001	100	-2.2
5	1002	101	-2.1615248723659
5	1003	102	0.57644940295722
5	1004	103	0.6523082422791
5	1005	104	2.7921312003164
5	1006	105	-1.0848991738097
5	1007	106	-1.3258016878273
5	1008	107	-2.2
5	1009	108	-0.96230544138234
5	1010	109	1.6633524723584
5	1011	110	3.4752679201774
5	1012	111	1.98819242639
5	1013	112	0.0035851368339994
5	1014	113	-2.2
5	1015	114	-2.2
5	1016	115	3.4375826410251
5	1017	116	1.4702696104932
5	1018	117	-2.2
5	1019	118	0.077989621673698
5	1020	119	-2.2
5	1021	120	-2.2
5	1022	121	0.50965703593101
5	1023	122	1.1730211623944
5	1024	123	0.47568749740097
5	1025	124	-1.0595876889266
5	1026	125	-0.53440206863452
5	1027	126	2.1169912900077
5	1028	127	-0.43977724020299
5	1029	128	0.029545066209243
5	1030	129	-0.38617235682904
5	1031	130	-1.8346601528644
5	1032	131	1.4043218765873
5	1033	132	-0.083744773834079
5	1034	133	0.74251950266771
5	1035	134	-2.2
5	1036	135	-2.2
5	1037	136	-2.2
5	1038	137	3.4044115031138
5	1039	138	2.5631600568663
5	1040	139	3.2050086717354
5	1041	140	-2.0367619217048
5	1042	141	0.0067020508321392
5	1043	142	-0.85032438215784
5	1044	143	-0.24734420291757
5	1045	144	0.037055024993606
5	1046	145	-0.69501581868523
5	1047	146	3.0411114797462
5	1048	147	-0.69754127522466
5	1049	148	-1.878331465332
5	1050	149	-1.1489347833091
5	1051	150	-0.14601075016634
5	1052	151	0.25568890326364
5	1053	152	-1.0290272270065
5	1054	153	-1.7103515391937
5	1055	154	1.0834340866422
5	1056	155	2.3249364371877
5	1057	156	3.4558439579559
5	1058	157	-1.1500659181195
5	1059	158	-2.2
5	1060	159	-1.3232919947361
5	1061	160	-0.13152506050035
5	1062	161	-2.2
5	1063	162	1.8743219499739
5	1064	163	-1.5818581125932
5	1065	164	2.0615895621013
5	1066	165	2.0910982623463
5	1067	166	1.9244327407796
5	1068	167	0.66666243980368
5	1069	168	2.124588812299
2	3	2	3.381858512992
2	4	3	4.9838052049745
2	5	4	6.7719289254164
2	6	5	7.3106310812291
2	7	6	9.3707240791991
2	8	7	9.8305722992984
2	9	8	9.7052133534082
2	10	9	7.6964675873496
2	11	10	8.2745200620011
2	12	11	10.260624089719
2	13	12	10.428783755208
2	14	13	8.4843583350247
2	15	14	6.5371123504537
2	16	15	7.2936991057303
2	17	16	9.8905352289966
2	18	17	7.6905352289966
2	19	18	5.4905352289966
2	20	19	6.6299376625985
2	21	20	8.3988318935454
2	22	21	10.802609963166
2	23	22	8.6026099631663
2	24	23	6.8204583924597
2	25	24	4.6204583924597
2	26	25	5.9856749137731
2	27	26	6.1010704795232
2	28	27	8.5480138339669
2	29	28	9.3367342695462
2	30	29	12.182423926458
2	31	30	12.84583943246
2	32	31	12.064492558917
2	33	32	9.864492558917
2	34	33	7.8706214105906
2	35	34	11.235655531796
2	36	35	11.339369105201
2	37	36	9.1393691052012
2	38	37	6.9393691052012
2	39	38	6.3184419313084
2	40	39	4.1184419313084
2	41	40	7.5572259941708
2	42	41	9.5645328264089
2	43	42	9.9440263843734
2	44	43	11.591699116404
2	45	44	9.6382175392922
2	46	45	7.4382175392922
2	48	46	5.7639339351531
2	123	47	4.2316101555683
2	125	48	6.4537406342773
2	200	49	7.0367658848612
2	201	50	8.9575451837357
2	203	51	9.3377749941049
2	278	52	11.101563787108
2	279	53	8.9015637871081
2	281	54	9.6102432721664
2	356	55	7.4102432721664
2	357	56	5.2102432721664
2	358	57	3.0102432721664
2	360	58	3.6293570840402
2	361	59	4.2475474242723
2	436	60	7.6561344836276
2	438	61	10.644247339912
2	513	62	10.506143240192
2	514	63	8.3061432401919
2	515	64	6.1061432401919
2	517	65	3.9061432401919
2	592	66	4.2998448756094
2	594	67	6.3292044834503
2	669	68	9.1504378487858
2	670	69	11.379099607844
2	672	70	11.04525974367
2	747	71	8.8452597436699
2	748	72	6.6452597436699
2	750	73	4.4452597436699
2	825	74	2.2452597436699
2	826	75	2.3005882521597
2	828	76	5.4647974620079
2	903	77	7.7978545404243
2	904	78	8.3864901862311
2	906	79	9.5285345090292
2	981	80	11.583033109221
2	982	81	10.34175469254
2	983	82	9.1082739002798
2	984	83	9.9144715840724
2	985	84	9.9982865462574
2	986	85	11.999151726536
2	987	86	15.359399305007
2	988	87	13.747630542886
2	989	88	15.415545952739
2	990	89	13.215545952739
2	991	90	13.675059073926
2	992	91	11.475059073926
2	993	92	9.275059073926
2	994	93	7.075059073926
2	995	94	5.4579575444292
2	996	95	6.847126317625
2	997	96	8.3792053235881
2	998	97	9.2285669878544
2	999	98	11.079873259477
2	1000	99	11.474834446082
2	1001	100	9.2748344460825
2	1002	101	7.1133095737165
2	1003	102	7.6897589766737
2	1004	103	8.3420672189529
2	1005	104	11.134198419269
2	1006	105	10.049299245459
2	1007	106	8.7234975576321
2	1008	107	6.5234975576321
2	1009	108	5.5611921162498
2	1010	109	7.2245445886082
2	1011	110	10.699812508786
2	1012	111	12.688004935176
2	1013	112	12.69159007201
2	1014	113	10.49159007201
2	1015	114	8.2915900720096
2	1016	115	11.729172713035
2	1017	116	13.199442323528
2	1018	117	10.999442323528
2	1019	118	11.077431945202
2	1020	119	8.8774319452016
2	1021	120	6.6774319452016
2	1022	121	7.1870889811327
2	1023	122	8.3601101435271
2	1024	123	8.8357976409281
2	1025	124	7.7762099520015
2	1026	125	7.241807883367
2	1027	126	9.3587991733747
2	1028	127	8.9190219331717
2	1029	128	8.948566999381
2	1030	129	8.5623946425519
2	1031	130	6.7277344896875
2	1032	131	8.1320563662749
2	1033	132	8.0483115924408
2	1034	133	8.7908310951085
2	1035	134	6.5908310951085
2	1036	135	4.3908310951085
2	1037	136	2.1908310951085
2	1038	137	5.5952425982223
2	1039	138	8.1584026550886
2	1040	139	11.363411326824
2	1041	140	9.3266494051192
2	1042	141	9.3333514559513
2	1043	142	8.4830270737935
2	1044	143	8.2356828708759
2	1045	144	8.2727378958695
2	1046	145	7.5777220771843
2	1047	146	10.61883355693
2	1048	147	9.9212922817058
2	1049	148	8.0429608163738
2	1050	149	6.8940260330647
2	1051	150	6.7480152828984
2	1052	151	7.003704186162
2	1053	152	5.9746769591556
2	1054	153	4.2643254199619
2	1055	154	5.3477595066041
2	1056	155	7.6726959437919
2	1057	156	11.128539901748
2	1058	157	9.9784739836283
2	1059	158	7.7784739836283
2	1060	159	6.4551819888923
2	1061	160	6.3236569283919
2	1062	161	4.1236569283919
2	1063	162	5.9979788783658
2	1064	163	4.4161207657726
2	1065	164	6.4777103278739
2	1066	165	8.5688085902203
2	1067	166	10.493241331
2	1068	167	11.159903770804
2	1069	168	13.284492583103
1	2	1	21.431071428571
1	3	2	21.431071428571
1	4	3	22.167833461759
1	5	4	23.253591024271
1	6	5	24.728904111594
1	7	6	26.321577311433
1	8	7	28.36305648583
1	9	8	30.504716879606
1	10	9	32.619066931598
1	11	10	36.746647301327
1	12	11	42.328762673507
1	13	12	49.250733619278
1	14	13	56.286147598202
1	15	14	62.368120809068
1	16	15	68.911587419872
1	17	16	75.83150157009
1	18	17	85.215170088934
1	19	18	92.511583442766
1	20	19	97.720741631586
1	21	20	103.95191948877
1	22	21	111.51705802761
1	23	22	121.24736838365
1	24	23	128.99605736706
1	25	24	135.13949651328
1	26	25	139.30131428687
1	27	26	144.59263494899
1	28	27	147.30060246884
1	29	28	150.13339727493
1	30	29	153.22757246678
1	31	30	157.26480355868
1	32	31	161.52188923156
1	33	32	165.5200381025
1	34	33	168.95305424829
1	35	34	175.43467632981
1	36	35	185.45540784923
1	37	36	195.56863827724
1	38	37	203.71975716843
1	39	38	209.90876452279
1	40	39	215.54398625378
1	41	40	219.16883072248
1	42	41	225.01737558578
1	43	42	232.41937724286
1	44	43	240.11506934943
1	45	44	249.08589705479
1	46	45	256.54492338592
1	48	46	262.30136748527
1	123	47	266.7620818049
1	125	48	269.26862975522
1	200	49	269.41280906726
1	201	50	269.5700134115
1	203	51	269.77012878262
1	278	52	269.97873864951
1	279	53	270.22675230859
1	281	54	270.42561703149
1	356	55	270.64031395566
1	357	56	270.80586194365
1	358	57	270.92226099548
1	360	58	269.76422068654
1	361	59	266.95283537391
1	436	60	263.66258529193
1	438	61	257.73196354807
1	513	62	249.48667934414
1	514	63	241.34837382227
1	515	64	234.91424001582
1	517	65	230.1842779248
1	592	66	227.15848754919
1	594	67	223.4010234004
1	669	68	217.12967470129
1	670	69	208.06288176558
1	672	70	196.78779945322
1	747	71	185.84350534708
1	748	72	177.07910085805
1	750	73	170.49458598613
1	825	74	166.15210672723
1	826	75	165.22188403807
1	828	76	164.52044997875
1	903	77	162.85426957314
1	904	78	160.47675557901
1	906	79	157.91977049086
1	981	80	155.01458368322
1	982	81	151.48299391466
1	983	82	148.26404763013
1	984	83	147.44334455103
1	985	84	150.72898074138
1	986	85	154.04239304372
1	987	86	158.01888809259
1	988	87	163.10896251468
1	989	88	167.66489997038
1	990	89	168.24004967366
1	991	90	165.40095109753
1	992	91	162.46313521887
1	993	92	159.99794581282
1	994	93	158.00538287941
1	995	94	156.30798521257
1	996	95	151.96573617899
1	997	96	145.77182408485
1	998	97	138.19199295781
1	999	98	129.84382906742
1	1000	99	119.82097308375
1	1001	100	109.44083511683
1	1002	101	101.05081767273
1	1003	102	93.105612080907
1	1004	103	85.75203921467
1	1005	104	77.774676161329
1	1006	105	67.127250197576
1	1007	106	57.517293048039
1	1008	107	49.175175286861
1	1009	108	42.936876430124
1	1010	109	38.876273044353
1	1011	110	36.610543864346
1	1012	111	33.254916789943
1	1013	112	29.27576174908
1	1014	113	25.295482353728
1	1015	114	22.005157063424
1	1016	115	20.66005370771
1	1017	116	23.215337763049
1	1018	117	26.090930554961
1	1019	118	28.487237632587
1	1020	119	30.900535306363
1	1021	120	32.834547265853
1	1022	121	36.726445561592
1	1023	122	41.574963612451
1	1024	123	47.214819337691
1	1025	124	53.175580985173
1	1026	125	58.421528881257
1	1027	126	64.533731402639
1	1028	127	73.412914090338
1	1029	128	81.874857088915
1	1030	129	90.364831038421
1	1031	130	98.488423057757
1	1032	131	104.76883858342
1	1033	132	112.09368253747
1	1034	133	119.34309447621
1	1035	134	127.261321195
1	1036	135	133.19792654115
1	1037	136	137.15291051466
1	1038	137	137.74566106569
1	1039	138	142.62131333532
1	1040	139	148.63367378016
1	1041	140	152.3994857233
1	1042	141	155.49031881111
1	1043	142	158.58337294525
1	1044	143	161.3946312681
1	1045	144	164.12392021339
1	1046	145	166.86548912037
1	1047	146	169.99867270866
1	1048	147	179.46714238491
1	1049	148	188.31563422406
1	1050	149	194.03890068226
1	1051	150	200.18746796164
1	1052	151	206.20581279675
1	1053	152	212.45219860774
1	1054	153	218.00922324173
1	1055	154	221.62999433837
1	1056	155	225.76945281905
1	1057	156	231.70853931965
1	1058	157	240.32263814308
1	1059	158	248.04652301574
1	1060	159	254.06748750722
1	1061	160	259.06415158592
1	1062	161	263.95900807092
1	1063	162	267.15094417473
1	1064	163	271.63967082796
1	1065	164	272.49773477363
1	1066	165	272.64244957882
1	1067	166	272.83388040903
1	1068	167	273.06830388557
1	1069	168	273.31762088471
0	2	1	171.24229591837
0	3	2	171.24229591837
0	4	3	167.94153299217
0	5	4	163.0772374018
0	6	5	156.46769656796
0	7	6	149.33237143613
0	8	7	140.18635349557
0	9	8	130.59151430753
0	10	9	121.11902800902
0	11	10	113.92991318868
0	12	11	107.82164850307
0	13	12	100.24723846963
0	14	13	92.548692687093
0	15	14	86.046474271122
0	16	15	83.790500571095
0	17	16	81.485167180552
0	18	17	78.359046842544
0	19	18	75.928284701477
0	20	19	74.19288075735
0	21	20	74.803164979883
0	22	21	78.449364454626
0	23	22	83.139120276958
0	24	23	86.873786278932
0	25	24	89.83476372476
0	26	25	91.840651350229
0	27	26	94.624523828854
0	28	27	99.999161016625
0	29	28	108.06394106624
0	30	29	116.87285384156
0	31	30	128.36658458959
0	32	31	140.48622683489
0	33	32	151.86869307649
0	34	33	161.10610849659
0	35	34	165.18274157538
0	36	35	170.26485481614
0	37	36	175.39387979454
0	38	37	179.52780047325
0	39	38	182.66661685225
0	40	39	185.52457536737
0	41	40	185.16542550613
0	42	41	180.37972444619
0	43	42	174.3228730406
0	44	43	168.02570293552
0	45	44	160.68512495218
0	46	45	154.58161184707
0	48	46	149.87127427223
0	123	47	146.22119621923
0	125	48	143.07381845396
0	200	49	136.62179424006
0	201	50	129.58689983549
0	203	51	120.6317369776
0	278	52	111.29644543429
0	279	53	100.19783419075
0	281	54	91.298637840816
0	356	55	81.690950484414
0	357	56	74.282678021628
0	358	57	69.07382045246
0	360	58	66.521951720057
0	361	59	64.227610007938
0	436	60	61.542471840473
0	438	61	56.702554386049
0	513	62	49.973665466998
0	514	63	43.332080714846
0	515	64	38.081252410678
0	517	65	34.221180554493
0	592	66	31.751865146291
0	594	67	30.261389516291
0	669	68	31.111760384281
0	670	69	32.341182785834
0	672	70	33.870040770399
0	747	71	35.354045140927
0	748	72	36.542464827081
0	750	73	37.43529982886
0	825	74	38.231393115506
0	826	75	40.232263436656
0	828	76	42.42316241205
0	903	77	47.627404913511
0	904	78	55.053467142096
0	906	79	63.040099577917
0	981	80	72.114325038837
0	982	81	83.145093081369
0	983	82	92.841436854276
0	984	83	100.40553831379
0	985	84	109.75952792901
0	986	85	119.19259430382
0	987	86	130.51341354162
0	988	87	145.00451983778
0	989	88	157.97497340575
0	990	89	173.80827414509
0	991	90	186.71701428396
0	992	91	200.07459970648
0	993	92	211.28325928008
0	994	93	220.34299300475
0	995	94	227.19577402957
0	996	95	230.28979104045
0	997	96	233.2083335941
0	998	97	236.77991474628
0	999	98	240.71353072091
0	1000	99	245.43625381623
0	1001	100	250.32732651936
0	1002	101	254.28066369371
0	1003	102	253.32083845841
0	1004	103	251.07383959379
0	1005	104	248.6362319098
0	1006	105	245.38274486522
0	1007	106	242.44627259563
0	1008	107	239.89720842249
0	1009	108	237.99099892362
0	1010	109	234.59843968876
0	1011	110	227.73862223644
0	1012	111	217.57898384207
0	1013	112	205.53152581591
0	1014	113	193.48066364657
0	1015	114	183.51873569446
0	1016	115	174.69652753431
0	1017	116	163.24861559552
0	1018	117	150.36569051138
0	1019	118	139.6300103252
0	1020	119	128.81821067665
0	1021	120	120.15365592605
0	1022	121	113.95201906883
0	1023	122	108.64649784381
0	1024	123	102.47505041546
0	1025	124	95.952449673073
0	1026	125	90.212038352321
0	1027	126	85.248960522537
0	1028	127	82.290907014022
0	1029	128	79.471854736781
0	1030	129	76.643464094101
0	1031	130	73.937131684944
0	1032	131	75.19689867802
0	1033	132	78.727282429846
0	1034	133	82.221309917583
0	1035	134	86.037688686417
0	1036	135	88.898977634892
0	1037	136	90.805176763008
0	1038	137	94.636286070765
0	1039	138	97.299141669155
0	1040	139	103.7943271519
0	1041	140	114.51534547782
0	1042	141	123.31474350328
0	1043	142	132.12046470121
0	1044	143	140.12393180292
0	1045	144	147.89403749087
0	1046	145	155.69910342013
0	1047	146	162.49585825159
0	1048	147	167.22784667492
0	1049	148	171.71544695134
0	1050	149	178.21344008348
0	1051	150	181.33174687792
0	1052	151	184.38401006995
0	1053	152	187.55192650154
0	1054	153	189.42099364484
0	1055	154	187.2846432339
0	1056	155	183.89811246734
0	1057	156	179.03928872181
0	1058	157	171.99201168597
0	1059	158	165.67302723891
0	1060	159	160.74721832213
0	1061	160	156.65939941739
0	1062	161	152.65487028352
0	1063	162	150.04351667993
0	1064	163	146.0914440671
0	1065	164	141.84136888023
0	1066	165	135.36538134766
0	1067	166	126.79885169589
0	1068	167	116.30840112057
0	1069	168	105.15146540928
66	106	46.268522522812	0.268522522812
66	269	51.465676377979	0.465676377979
66	319	54.259220379831	0.259220379831
66	419	59.077007642104	1.077007642104
66	512	61.666855243367	0.666855243367
66	583	65.686767297166	0.686767297166
66	668	67.373335654706	0.373335654706
66	742	70.875496941242	0.87549694124201
66	808	73.285723141552	0.285723141552
66	894	76.956442668306	0.956442668306
66	968	79.957570891819	0.957570891819
9	6	5	2.9702432537143
9	7	6	2.4850066090977
9	8	7	1.8492343153053
9	9	8	4.022274435233
9	10	9	6.187111682671
9	11	10	5.6158084564625
9	12	11	7.1401193863077
9	13	12	5.1460698817361
9	14	13	0.973
9	15	14	9.7801971023196
9	16	15	0.973
9	17	16	0.973
9	18	17	0.973
9	19	18	0.973
9	20	19	0.973
9	21	20	0.973
9	22	21	0.973
9	23	22	1.9270510044359
9	24	23	4.1320167563479
9	25	24	8.1929678077505
9	26	25	1.7449686458991
9	27	26	0.973
9	28	27	0.973
9	29	28	0.973
9	30	29	0.973
9	31	30	3.9642081953113
9	32	31	6.1368953298747
9	33	32	3.8888918084161
9	34	33	3.6248962067663
9	35	34	5.6389538260296
9	36	35	8.4101077544024
9	37	36	3.38949144489
9	38	37	6.5305971352179
9	39	38	0.973
9	40	39	0.973
9	41	40	5.1906524254194
9	42	41	0.973
9	43	42	0.973
9	44	43	0.973
9	45	44	0.973
9	46	45	4.7631102843353
9	48	46	2.0516881071474
9	123	47	2.3528131593507
9	125	48	2.0674539750511
9	200	49	1.8915048270741
9	201	50	1.2426539394701
9	203	51	0.973
9	278	52	0.973
9	279	53	2.8276972591306
9	281	54	5.9039360649882
9	356	55	4.6452845077638
9	357	56	12.113385221022
9	358	57	0.973
9	360	58	0.973
9	361	59	0.973
9	436	60	6.1771314394653
9	438	61	3.2549824522773
9	513	62	2.0515185797151
9	514	63	8.2523178610534
9	515	64	0.973
9	517	65	0.973
9	592	66	0.973
9	594	67	3.1002395068702
9	669	68	8.2283959206241
9	670	69	11.59076882095
9	672	70	0.973
9	747	71	0.973
9	748	72	0.973
9	750	73	0.973
9	825	74	8.5972281224293
9	826	75	9.1218581480719
9	828	76	0.973
9	903	77	0.973
9	904	78	2.4269801691077
9	906	79	2.185236010922
9	981	80	6.0838953114901
9	982	81	0.973
9	983	82	0.973
9	984	83	4.916787346978
9	985	84	6.1545251310448
9	986	85	0.973
9	987	86	0.973
9	988	87	0.973
9	989	88	0.973
9	990	89	2.5120799094155
9	991	90	3.3217570799408
9	992	91	1.9871244749673
9	993	92	7.6325757514032
9	994	93	5.0031606345184
9	995	94	13.403606375618
9	996	95	0.973
9	997	96	2.5784901798879
9	998	97	0.973
9	999	98	2.4715160435763
9	1000	99	11.072593954749
9	1001	100	0.973
9	1002	101	0.973
9	1003	102	0.973
9	1004	103	0.973
9	1005	104	4.4002307488227
9	1006	105	5.8091936979369
9	1007	106	3.0782856510983
9	1008	107	6.0096000449724
9	1009	108	0.973
9	1010	109	0.973
9	1011	110	0.973
9	1012	111	0.973
9	1013	112	3.3865755736622
9	1014	113	3.3268042128494
9	1015	114	3.6401775568893
9	1016	115	1.8273668861741
9	1017	116	8.8849123128325
9	1018	117	0.973
9	1019	118	0.973
9	1020	119	0.973
9	1021	120	0.973
9	1022	121	3.1344404074412
9	1023	122	5.280087102027
9	1024	123	9.3156613448689
9	1025	124	10.370914455004
9	1026	125	0.973
9	1027	126	0.973
9	1028	127	0.973
9	1029	128	6.9565551924882
9	1030	129	7.8582878422061
9	1031	130	3.1449320650065
9	1032	131	0.973
9	1033	132	0.973
9	1034	133	0.973
9	1035	134	9.5254399384555
9	1036	135	0.973
9	1037	136	0.973
9	1038	137	0.973
9	1039	138	2.0190221911809
9	1040	139	8.9114723317253
9	1041	140	0.973
9	1042	141	0.973
9	1043	142	0.973
9	1044	143	0.973
9	1045	144	2.0948736271607
9	1046	145	1.4889481304793
9	1047	146	2.7035615399862
9	1048	147	0.973
9	1049	148	2.0392638405788
9	1050	149	0.973
9	1051	150	0.973
9	1052	151	5.340833521151
9	1053	152	1.5106575219933
9	1054	153	5.499567931905
9	1055	154	4.1253311696026
9	1056	155	6.0965219170917
9	1057	156	3.199839947619
9	1058	157	2.2855929589122
9	1059	158	4.77761786947
9	1060	159	4.7294132335881
9	1061	160	0.973
9	1062	161	4.5537248367881
9	1063	162	0.973
9	1064	163	0.973
9	1065	164	0.973
9	1066	165	0.973
9	1067	166	0.973
9	1068	167	5.3611432252931
9	1069	168	7.862877650299
8	6	5	1.9190532177454
8	7	6	1.018064709031
8	8	7	0.39755053119734
8	9	8	1.600198998698
8	10	9	2.1611579657765
8	11	10	1.5612064241432
8	12	11	1.7989104040898
8	13	12	1.0044164344558
8	14	13	-2.0746726617217
8	15	14	2.3956627616426
8	16	15	-2.1744005084518
8	17	16	-0.31773351412793
8	18	17	-2.2
8	19	18	-2.2
8	20	19	-2.2
8	21	20	-2.2
8	22	21	-0.80429442028454
8	23	22	1.1349400298204
8	24	23	2.3551122677745
8	25	24	3.3435073714936
8	26	25	0.089836205147483
8	27	26	-1.1738064509584
8	28	27	-2.2
8	29	28	-2.2
8	30	29	-0.8887551165937
8	31	30	2.5052545049693
8	32	31	2.7230239001801
8	33	32	1.1698765167966
8	34	33	0.90624394093174
8	35	34	1.5156022022711
8	36	35	2.1061111568706
8	37	36	0.44740726249845
8	38	37	1.2699492151207
8	39	38	-2.2
8	40	39	-0.29177219928809
8	41	40	1.0326041963222
8	42	41	-2.2
8	43	42	-2.2
8	44	43	-2.2
8	45	44	-2.2
8	46	45	2.1532941042678
8	48	46	0.36046567407902
8	123	47	0.49102254363243
8	125	48	0.30392096133437
8	200	49	0.19530127523467
8	201	50	-0.14986530034153
8	203	51	-0.75084052834234
8	278	52	-1.1480712740915
8	279	53	0.86838844721206
8	281	54	2.0730954136234
8	356	55	1.2459712628042
8	357	56	3.2178537435421
8	358	57	-2.2
8	360	58	-2.2
8	361	59	-2.2
8	436	60	2.1891095999163
8	438	61	0.71209955529775
8	513	62	0.17249990953133
8	514	63	2.2512810613999
8	515	64	-2.2
8	517	65	-2.2
8	592	66	-1.6628113654483
8	594	67	1.0021519670263
8	669	68	2.8385625302326
8	670	69	3.1469517315272
8	672	70	-1.3653495683064
8	747	71	-2.2
8	748	72	-2.2
8	750	73	-0.78077692340594
8	825	74	3.1028770498233
8	826	75	2.5487868108415
8	828	76	-2.2
8	903	77	-2.2
8	904	78	0.46521513257176
8	906	79	0.31517692562193
8	981	80	1.813683938363
8	982	81	-2.2
8	983	82	-1.1739720570987
8	984	83	1.6656377477339
8	985	84	1.8192566135738
8	986	85	-2.2
8	987	86	-0.6838023535558
8	988	87	-2.2
8	989	88	-1.9897637940478
8	990	89	1.1608184999786
8	991	90	1.4085532800527
8	992	91	0.38747792388313
8	993	92	2.8209398398176
8	994	93	1.341783005977
8	995	94	3.4594505989226
8	996	95	-0.89905633562174
8	997	96	0.20483131311469
8	998	97	-1.8258379214676
8	999	98	0.24574606748663
8	1000	99	2.6640139431588
8	1001	100	-2.2
8	1002	101	-2.2
8	1003	102	-2.2
8	1004	103	-2.2
8	1005	104	1.7330998682883
8	1006	105	1.9494082888123
8	1007	106	0.61888485064264
8	1008	107	1.5773130855523
8	1009	108	-2.2
8	1010	109	-1.2202613260253
8	1011	110	-2.2
8	1012	111	-1.468185018748
8	1013	112	1.4921554072062
8	1014	113	1.1557182815159
8	1015	114	1.1192393975798
8	1016	115	0.14910310902633
8	1017	116	2.7623894911958
8	1018	117	-2.2
8	1019	118	-1.7402926463116
8	1020	119	-1.8694112581894
8	1021	120	-0.9269927891437
8	1022	121	1.3585148577113
8	1023	122	2.100486578187
8	1024	123	3.0117714816006
8	1025	124	2.6614960061954
8	1026	125	-2.2
8	1027	126	-2.2
8	1028	127	-2.1447553870372
8	1029	128	2.4537963919574
8	1030	129	2.2357056983747
8	1031	130	0.46646951594572
8	1032	131	-1.9035951380967
8	1033	132	-0.33920783707912
8	1034	133	-1.6424179058988
8	1035	134	2.9790317865554
8	1036	135	-1.2943253855825
8	1037	136	-1.2338394426508
8	1038	137	-1.0667825350129
8	1039	138	0.2800639778432
8	1040	139	2.8741750715999
8	1041	140	-0.67363210602369
8	1042	141	-1.9717689338606
8	1043	142	-0.90170662691817
8	1044	143	-0.90864563395735
8	1045	144	0.42680295614991
8	1046	145	0.030214137746952
8	1047	146	0.71148960210849
8	1048	147	-1.9309534240908
8	1049	148	0.47099676575437
8	1050	149	-0.85021952385238
8	1051	150	-2.2
8	1052	151	2.9535619117087
8	1053	152	0.083039408433252
8	1054	153	2.125622535008
8	1055	154	1.1710872448748
8	1056	155	1.7032239423133
8	1057	156	0.52926638221834
8	1058	157	0.18075452319425
8	1059	158	0.97733275069025
8	1060	159	0.87194577080663
8	1061	160	-0.97417931387302
8	1062	161	0.83008671477563
8	1063	162	-2.2
8	1064	163	-2.2
8	1065	164	-1.7668068944218
8	1066	165	-2.2
8	1067	166	-0.54641681432258
8	1068	167	2.4597153729992
8	1069	168	2.7622492529918
7	5	4	1.7145783787812
7	6	5	3.6336315965266
7	7	6	4.6516963055576
7	8	7	5.0492468367549
7	9	8	6.649445835453
7	10	9	8.8106038012295
7	11	10	10.371810225373
7	12	11	12.170720629462
7	13	12	13.175137063918
7	14	13	11.100464402197
7	15	14	13.496127163839
7	16	15	11.321726655387
7	17	16	11.003993141259
7	18	17	8.8039931412594
7	19	18	6.6039931412594
7	20	19	4.4039931412594
7	21	20	2.2039931412594
7	22	21	1.3996987209749
7	23	22	2.5346387507953
7	24	23	4.8897510185698
7	25	24	8.2332583900634
7	26	25	8.3230945952109
7	27	26	7.1492881442526
7	28	27	4.9492881442526
7	29	28	2.7492881442526
7	30	29	1.8605330276589
7	31	30	4.3657875326282
7	32	31	7.0888114328083
7	33	32	8.258687949605
7	34	33	9.1649318905367
7	35	34	10.680534092808
7	36	35	12.786645249678
7	37	36	13.234052512177
7	38	37	14.504001727298
7	39	38	12.304001727298
7	40	39	12.01222952801
7	41	40	13.044833724332
7	42	41	10.844833724332
7	43	42	8.6448337243318
7	44	43	6.4448337243318
7	45	44	4.2448337243317
7	46	45	6.3981278285996
7	48	46	6.7585935026786
7	123	47	7.249616046311
7	125	48	7.5535370076454
7	200	49	7.7488382828801
7	201	50	7.5989729825386
7	203	51	6.8481324541962
7	278	52	5.7000611801047
7	279	53	6.5684496273168
7	281	54	8.6415450409402
7	356	55	9.8875163037444
7	357	56	13.105370047287
7	358	57	10.905370047287
7	360	58	8.7053700472865
7	361	59	6.5053700472865
7	436	60	8.6944796472028
7	438	61	9.4065792025005
7	513	62	9.5790791120319
7	514	63	11.830360173432
7	515	64	9.6303601734317
7	517	65	7.4303601734317
7	592	66	5.7675488079835
7	594	67	6.7697007750098
7	669	68	9.6082633052423
7	670	69	12.75521503677
7	672	70	11.389865468463
7	747	71	9.1898654684631
7	748	72	6.9898654684631
7	750	73	6.2090885450572
7	825	74	9.3119655948805
7	826	75	11.860752405722
7	828	76	9.660752405722
7	903	77	7.460752405722
7	904	78	7.9259675382938
7	906	79	8.2411444639157
7	981	80	10.054828402279
7	982	81	7.8548284022787
7	983	82	6.68085634518
7	984	83	8.3464940929138
7	985	84	10.165750706488
7	986	85	7.9657507064876
7	987	86	7.2819483529318
7	988	87	5.0819483529318
7	989	88	3.0921845588841
7	990	89	4.2530030588627
7	991	90	5.6615563389154
7	992	91	6.0490342627986
7	993	92	8.8699741026162
7	994	93	10.211757108593
7	995	94	13.671207707516
7	996	95	12.772151371894
7	997	96	12.976982685009
7	998	97	11.151144763541
7	999	98	11.396890831028
7	1000	99	14.060904774187
7	1001	100	11.860904774187
7	1002	101	9.6609047741865
7	1003	102	7.4609047741865
7	1004	103	5.2609047741865
7	1005	104	6.9940046424748
7	1006	105	8.943412931287
7	1007	106	9.5622977819297
7	1008	107	11.139610867482
7	1009	108	8.939610867482
7	1010	109	7.7193495414567
7	1011	110	5.5193495414567
7	1012	111	4.0511645227086
7	1013	112	5.5433199299148
7	1014	113	6.6990382114307
7	1015	114	7.8182776090105
7	1016	115	7.9673807180368
7	1017	116	10.729770209233
7	1018	117	8.5297702092326
7	1019	118	6.789477562921
7	1020	119	4.9200663047316
7	1021	120	3.9930735155879
7	1022	121	5.3515883732991
7	1023	122	7.4520749514861
7	1024	123	10.463846433087
7	1025	124	13.125342439282
7	1026	125	10.925342439282
7	1027	126	8.7253424392821
7	1028	127	6.5805870522449
7	1029	128	9.0343834442023
7	1030	129	11.270089142577
7	1031	130	11.736558658523
7	1032	131	9.832963520426
7	1033	132	9.4937556833469
7	1034	133	7.8513377774481
7	1035	134	10.830369564004
7	1036	135	9.536044178421
7	1037	136	8.3022047357702
7	1038	137	7.2354222007574
7	1039	138	7.5154861786005
7	1040	139	10.3896612502
7	1041	140	9.7160291441767
7	1042	141	7.7442602103162
7	1043	142	6.842553583398
7	1044	143	5.9339079494406
7	1045	144	6.3607109055906
7	1046	145	6.3909250433375
7	1047	146	7.102414645446
7	1048	147	5.1714612213552
7	1049	148	5.6424579871096
7	1050	149	4.7922384632572
7	1051	150	2.5922384632572
7	1052	151	5.5458003749659
7	1053	152	5.6288397833991
7	1054	153	7.7544623184071
7	1055	154	8.9255495632819
7	1056	155	10.628773505595
7	1057	156	11.158039887814
7	1058	157	11.338794411008
7	1059	158	12.316127161698
7	1060	159	13.188072932505
7	1061	160	12.213893618632
7	1062	161	13.043980333407
7	1063	162	10.843980333407
7	1064	163	8.6439803334074
7	1065	164	6.8771734389855
7	1066	165	4.6771734389855
7	1067	166	4.130756624663
7	1068	167	6.5904719976622
7	1069	168	9.3527212506539
4	4	3	21.431071428571
4	5	4	21.431071428571
4	6	5	21.804604575377
4	7	6	22.596217173192
4	8	7	23.60962243976
4	9	8	24.709636929196
4	10	9	26.158266200491
4	11	10	31.197719171473
4	12	11	33.457292113429
4	13	12	36.108770536276
4	14	13	43.947461686046
4	15	14	51.436001506306
4	16	15	60.540691366461
4	17	16	69.0758593858
4	18	17	79.515923713005
4	19	18	87.868732875198
4	20	19	94.134286872379
4	21	20	98.312585704548
4	22	21	100.41748090218
4	23	22	101.70009815631
4	24	23	103.9837247784
4	25	24	108.38923053258
4	26	25	115.807127083
4	27	26	123.30596311627
4	28	27	129.74723792519
4	29	28	134.20638468251
4	30	29	136.68340338825
4	31	30	138.35968279963
4	32	31	142.23973862116
4	33	32	148.09762675896
4	34	33	150.83453954164
4	35	34	153.87177976633
4	36	35	157.41128755049
4	37	36	161.64875638877
4	38	37	166.03449510518
4	39	38	169.47413186664
4	40	39	166.84952268052
4	41	40	164.26893283043
4	42	41	161.46650839901
4	43	42	159.13671044021
4	44	43	157.27953895404
4	45	44	154.40111723332
4	46	45	150.57686975468
4	48	46	144.78912180041
4	123	47	138.6752965117
4	125	48	132.11729211333
4	200	49	125.28436074111
4	201	50	118.2747597889
4	203	51	111.400727023
4	278	52	105.20590477747
4	279	53	99.624174668899
4	281	54	92.568262508214
4	356	55	84.304514407892
4	357	56	74.849267263444
4	358	57	62.316846692909
4	360	58	51.888245026815
4	361	59	43.563462265163
4	436	60	38.785655026946
4	438	61	36.058931425197
4	513	62	33.108882363729
4	514	63	30.104734656488
4	515	64	26.39455030837
4	517	65	23.3743200653
4	592	66	21.044043927278
4	594	67	20.777823199225
4	669	68	22.252650868067
4	670	69	24.345879659566
4	672	70	27.124694364005
4	747	71	29.606057912492
4	748	72	31.608135746692
4	750	73	33.131469112941
4	825	74	37.328264305737
4	826	75	43.610255998657
4	828	76	51.611697512303
4	903	77	58.128986020485
4	904	78	64.330034610761
4	906	79	71.849814920771
4	981	80	79.668620078916
4	982	81	89.208162131628
4	983	82	96.660449019328
4	984	83	102.99115151311
4	985	84	110.50914745908
4	986	85	119.66581512676
4	987	86	126.8408614218
4	988	87	133.39998164481
4	989	88	137.97748049518
4	990	89	140.76272549974
4	991	90	144.50155842855
4	992	91	147.11842491035
4	993	92	149.12306285015
4	994	93	152.06255464978
4	995	94	155.44671067247
4	996	95	159.97732175232
4	997	96	164.20998734829
4	998	97	168.52670808731
4	999	98	168.60798616828
4	1000	99	166.15958966265
4	1001	100	163.13888246931
4	1002	101	160.59080174859
4	1003	102	158.51534750049
4	1004	103	156.91251972503
4	1005	104	153.94229686075
4	1006	105	147.61551859904
4	1007	106	139.52530513599
4	1008	107	130.87524828997
4	1009	108	120.79835365191
4	1010	109	112.71157953668
4	1011	110	105.72865410697
4	1012	111	100.68163489244
4	1013	112	95.700921128914
4	1014	113	90.399947828041
4	1015	114	83.993782723141
4	1016	115	76.517309889503
4	1017	116	68.898252537919
4	1018	117	58.637573716787
4	1019	118	50.480713800096
4	1020	119	43.988063232754
4	1021	120	39.701199570186
4	1022	121	38.169790338767
4	1023	122	36.491449263
4	1024	123	34.154363033951
4	1025	124	30.872738578904
4	1026	125	26.756427717018
4	1027	126	23.33007096018
4	1028	127	20.593668308391
4	1029	128	21.267808748821
4	1030	129	23.23601371345
4	1031	130	25.691283133798
4	1032	131	28.248176270119
4	1033	132	30.390357608497
4	1034	133	32.458640096655
4	1035	134	36.354348368069
4	1036	135	43.66067815839
4	1037	136	50.093836625502
4	1038	137	55.694628493945
4	1039	138	60.575752859881
4	1040	139	67.823001294088
4	1041	140	77.680216797364
4	1042	141	86.898322258542
4	1043	142	94.245707314533
4	1044	143	100.7860472749
4	1045	144	106.18915440473
4	1046	145	111.91848198459
4	1047	146	117.67502455587
4	1048	147	124.07243212803
4	1049	148	128.73055852986
4	1050	149	133.81292913962
4	1051	150	138.1294755767
4	1052	151	140.46440064114
4	1053	152	145.17071511615
4	1054	153	147.42625386673
4	1055	154	149.99606727676
4	1056	155	152.95397667367
4	1057	156	156.47633110203
4	1058	157	160.17408335821
4	1059	158	163.93173730435
4	1060	159	168.01327738284
4	1061	160	168.49274099666
4	1062	161	165.86882760666
4	1063	162	163.06658650939
4	1064	163	160.73697188475
4	1065	164	158.87998373274
4	1066	165	157.40255908542
4	1067	166	156.09422445455
4	1068	167	152.79709909789
4	1069	168	146.83535656258
3	4	3	171.24229591837
3	5	4	171.24229591837
3	6	5	169.56883242928
3	7	6	166.02233383532
3	8	7	161.48218330852
3	9	8	156.55401535
3	10	9	150.06402051162
3	11	10	142.16469139338
3	12	11	132.04159294382
3	13	12	120.16272122741
3	14	13	110.79282174855
3	15	14	102.59844017793
3	16	15	92.635576310338
3	17	16	87.102250464798
3	18	17	83.624197360317
3	19	18	80.841502452776
3	20	19	78.754165742177
3	21	20	77.362187228519
3	22	21	76.732598357441
3	23	22	77.267705783395
3	24	23	78.368072905746
3	25	24	80.490869006622
3	26	25	84.065187768776
3	27	26	87.678507278672
3	28	27	90.782240155668
3	29	28	92.930883212305
3	30	29	94.124436448582
3	31	30	94.932152882746
3	32	31	96.914208370993
3	33	32	102.26823662358
3	34	33	110.06004687397
3	35	34	118.70686955145
3	36	35	128.78361485673
3	37	36	140.84740926724
3	38	37	153.3333182455
3	39	38	167.95796337792
3	40	39	180.13068639293
3	41	40	191.86404572746
3	42	41	204.60603681162
3	43	42	215.19910204686
3	44	43	223.64324143317
3	45	44	229.10620000487
3	46	45	230.9442184361
3	48	46	233.67137833724
3	123	47	236.55218436088
3	125	48	239.64228551387
3	200	49	242.86193097749
3	201	50	246.16482232503
3	203	51	249.40383457408
3	278	52	252.32280598682
3	279	53	254.85804209207
3	281	54	253.15664291677
3	356	55	250.63152581564
3	357	56	247.74232760074
3	358	57	243.91285105849
3	360	58	240.72622919052
3	361	59	238.18246199682
3	436	60	234.32408074825
3	438	61	226.06853709547
3	513	62	217.13684383945
3	514	63	208.04135923639
3	515	64	196.80824825071
3	517	65	187.66407148226
3	592	66	180.60882893104
3	594	67	174.16890918005
3	669	68	167.56154306648
3	670	69	158.18368199356
3	672	70	145.73433180716
3	747	71	134.61759066371
3	748	72	125.64809441821
3	750	73	118.8237778746
3	825	74	113.29347514115
3	826	75	106.4193664109
3	828	76	97.663738951927
3	903	77	90.532155208806
3	904	78	85.31682104879
3	906	79	82.811645368589
3	981	80	80.206851116243
3	982	81	77.028802321533
3	983	82	74.546111723765
3	984	83	74.340099872721
3	985	84	77.96357784719
3	986	85	82.376852854497
3	987	86	85.835038041446
3	988	87	88.996362925203
3	989	88	91.202597988602
3	990	89	92.545013440812
3	991	90	94.562426201286
3	992	91	99.480513518388
3	993	92	105.18758556923
3	994	93	113.55612492502
3	995	94	123.19059400762
3	996	95	136.08894505329
3	997	96	148.13906494961
3	998	97	160.43668313864
3	999	98	172.13534998649
3	1000	99	183.26765603384
3	1001	100	197.00212954681
3	1002	101	208.58767721086
3	1003	102	218.02429902598
3	1004	103	225.31199499217
3	1005	104	229.35844484569
3	1006	105	232.33959331916
3	1007	106	236.15166425287
3	1008	107	240.22753078324
3	1009	108	244.97571664103
3	1010	109	248.78616697005
3	1011	110	252.07648893552
3	1012	111	254.44857045894
3	1013	112	254.11387561059
3	1014	113	252.49408055244
3	1015	114	250.53657690366
3	1016	115	248.25202403743
3	1017	116	245.92390224821
3	1018	117	242.78859182419
3	1019	118	240.29613607444
3	1020	119	238.31220544391
3	1021	120	236.11964582864
3	1022	121	232.45946278176
3	1023	122	227.37804638651
3	1024	123	220.3021853158
3	1025	124	210.36660038036
3	1026	125	197.90388359201
3	1027	126	187.5301010209
3	1028	127	179.24525266703
3	1029	128	171.97372801758
3	1030	129	163.15598540086
3	1031	130	152.15614839589
3	1032	131	140.70102762357
3	1033	132	131.10385455491
3	1034	133	121.83775525784
3	1035	134	114.35918875188
3	1036	135	106.364191647
3	1037	136	99.324667727912
3	1038	137	93.195966169365
3	1039	138	87.854765279983
3	1040	139	84.153157374311
3	1041	140	80.869277322598
3	1042	141	77.798313455723
3	1043	142	75.350570357319
3	1044	143	73.462221723003
3	1045	144	75.881453861649
3	1046	145	78.642840332639
3	1047	146	81.417343719717
3	1048	147	84.500727323279
3	1049	148	86.745822763687
3	1050	149	89.195392847911
3	1051	150	91.275855653817
3	1052	151	92.401228639362
3	1053	152	95.234517254144
3	1054	153	100.35688226237
3	1055	154	107.67297161549
3	1056	155	116.09394465648
3	1057	156	126.12185548873
3	1058	157	136.64911237295
3	1059	158	147.34690541924
3	1060	159	158.96678093085
3	1061	160	172.65934375872
3	1062	161	184.58968544649
3	1063	162	197.33084295165
3	1064	163	207.92307460787
3	1065	164	216.36638041518
3	1066	165	223.08389667453
3	1067	166	227.54313526136
3	1068	167	229.89805670204
3	1069	168	232.70720204004
69	118	46.268522649876	0.268522649876
69	195	48.762339093733	0.762339093733
69	273	51.465676383043	0.465676383043
69	347	54.259220672231	0.259220672231
69	423	59.077007738292	1.077007738292
69	492	61.66685490788	0.66685490788
69	563	65.686767089792	0.686767089792
69	628	67.373335147196	0.373335147196
69	714	70.875496375285	0.875496375285
69	800	73.285723005103	0.28572300510299
69	960	79.95757085639	0.95757085638999
54	34	33	2.8590504965345
54	35	34	5.6456685741996
54	36	35	6.884058337936
54	37	36	1.7350213653754
54	38	37	9.5964407812411
54	39	38	0.973
54	40	39	0.973
54	41	40	3.6361285019062
54	42	41	6.3754528405918
54	43	42	0.973
54	44	43	0.973
54	45	44	0.973
54	46	45	6.0646414401593
54	48	46	6.4312660193391
54	123	47	0.973
54	125	48	0.973
54	200	49	0.973
54	201	50	1.9154404035843
54	203	51	8.7484667648066
54	278	52	0.973
54	279	53	0.973
54	281	54	0.973
54	356	55	0.973
54	357	56	0.973
54	358	57	2.3855306600229
54	360	58	2.829680493279
54	361	59	2.8193353986218
54	436	60	6.8682266803442
54	438	61	3.6733636690397
54	513	62	4.5595583748761
54	514	63	2.6342191414789
54	515	64	0.973
54	517	65	2.8118078111395
54	592	66	2.2256754374135
54	594	67	0.973
54	669	68	7.363171066492
54	670	69	4.7280649733713
54	672	70	0.973
54	747	71	0.973
54	748	72	0.973
54	750	73	0.973
54	825	74	2.9466314105707
54	826	75	6.2346822553603
54	828	76	5.1911649135486
54	903	77	12.546033614099
54	904	78	0.973
54	906	79	0.973
54	981	80	0.973
54	982	81	0.973
54	983	82	4.4966249811889
54	984	83	8.2141953237737
54	985	84	2.2957856004843
54	986	85	9.7061270251676
54	987	86	0.973
54	988	87	0.973
54	989	88	0.973
54	990	89	0.973
54	991	90	2.8796627044988
54	992	91	4.637248207698
54	993	92	3.9133789523325
54	994	93	5.072331506912
54	995	94	0.973
54	996	95	0.973
54	997	96	0.973
54	998	97	4.3253042255634
54	999	98	1.6036335896802
54	1000	99	5.1670933663465
54	1001	100	4.0055737073316
54	1002	101	2.882236041944
54	1003	102	0.973
54	1004	103	0.973
54	1005	104	1.284800418024
54	1006	105	0.973
54	1007	106	1.4646566073397
54	1008	107	5.6291835930558
54	1009	108	3.6039011958399
54	1010	109	5.2071620247843
54	1011	110	3.4067008614794
54	1012	111	2.6924413583658
54	1013	112	0.973
54	1014	113	1.9193276686498
54	1015	114	5.8612504293711
54	1016	115	11.872999969886
54	1017	116	0.973
54	1018	117	0.973
54	1019	118	11.072517250119
54	1020	119	0.973
54	1021	120	0.973
54	1022	121	0.973
54	1023	122	0.973
54	1024	123	0.973
54	1025	124	2.2757558894523
54	1026	125	0.973
54	1027	126	1.2653386900365
54	1028	127	2.6428762798094
54	1029	128	6.1669990067194
54	1030	129	5.8261206298002
54	1031	130	0.973
54	1032	131	0.973
54	1033	132	2.2923180454375
54	1034	133	2.6539645313413
54	1035	134	0.973
54	1036	135	5.4535497927769
54	1037	136	2.0350588865737
54	1038	137	5.183514945202
54	1039	138	4.5500616325966
54	1040	139	2.0553083038702
54	1041	140	0.973
54	1042	141	1.397709092679
54	1043	142	0.973
54	1044	143	3.4057300092876
54	1045	144	8.696886212641
54	1046	145	7.3792382169236
54	1047	146	3.9407795549854
54	1048	147	0.973
54	1049	148	0.973
54	1050	149	5.8349210863132
54	1051	150	7.5016466196619
54	1052	151	2.5258748804592
54	1053	152	0.973
54	1054	153	0.973
54	1055	154	0.973
54	1056	155	1.7054733987591
54	1057	156	1.6443100965966
54	1058	157	6.8618789109361
54	1059	158	0.973
54	1060	159	0.973
54	1061	160	2.2242949233612
54	1062	161	4.5093202521854
54	1063	162	4.636616376827
54	1064	163	0.973
54	1065	164	0.973
54	1066	165	7.21033972294
54	1067	166	0.973
54	1068	167	0.973
54	1069	168	0.973
53	34	33	2.4456100398675
53	35	34	3.0419675055891
53	36	35	2.6232086602831
53	37	36	0.077964809024706
53	38	37	2.8560073361732
53	39	38	-1.8769714395533
53	40	39	-2.2
53	41	40	1.0365021771286
53	42	41	1.9018261224264
53	43	42	-0.20973257428438
53	44	43	-0.62154447643
53	45	44	-2.2
53	46	45	2.0077757372055
53	48	46	1.770731267457
53	123	47	-2.2
53	125	48	-1.398807679466
53	200	49	-2.2
53	201	50	0.39129984541796
53	203	51	3.3391013782239
53	278	52	-1.1661298828722
53	279	53	-0.17504837258021
53	281	54	-2.2
53	356	55	-2.2
53	357	56	-1.4519343976398
53	358	57	1.4718804036918
53	360	58	1.3683754066005
53	361	59	1.0579491148237
53	436	60	2.6687267945381
53	438	61	0.92624885297846
53	513	62	1.1453021516105
53	514	63	0.34871504803359
53	515	64	-2.2
53	517	65	0.5510854254899
53	592	66	0.26509001418535
53	594	67	-1.9467644334278
53	669	68	2.4207763834856
53	670	69	1.1321679948596
53	672	70	-0.30565128221635
53	747	71	-2.2
53	748	72	-2.2
53	750	73	-1.5316352661466
53	825	74	1.1085313443327
53	826	75	2.3833457041765
53	828	76	1.5159036682453
53	903	77	3.3736512544565
53	904	78	-2.2
53	906	79	-2.2
53	981	80	-0.96124461475573
53	982	81	-0.99312226938618
53	983	82	1.4924921244383
53	984	83	2.5132108380785
53	985	84	0.20583555847406
53	986	85	2.4119513271774
53	987	86	-1.7034346598744
53	988	87	-2.2
53	989	88	-1.9551892342744
53	990	89	-0.97187089391
53	991	90	0.78984076762572
53	992	91	1.4495201491518
53	993	92	0.96518407843541
53	994	93	1.2568156360133
53	995	94	-0.97251019887626
53	996	95	-2.2
53	997	96	-2.0834789218056
53	998	97	1.608849866665
53	999	98	0.057776711531915
53	1000	99	1.6410665957956
53	1001	100	0.96814128721599
53	1002	101	0.46367823584545
53	1003	102	-2.2
53	1004	103	-2.2
53	1005	104	-0.091385620064103
53	1006	105	-1.323098559049
53	1007	106	0.10359164234251
53	1008	107	2.4122605717275
53	1009	108	1.0414468338713
53	1010	109	1.5191543968394
53	1011	110	0.67821086302865
53	1012	111	0.36756435663063
53	1013	112	-1.3722440467682
53	1014	113	0.11968573951162
53	1015	114	1.5421407505637
53	1016	115	2.9271458993899
53	1017	116	-0.55748109390019
53	1018	117	-1.0264199735703
53	1019	118	2.4968558986809
53	1020	119	-2.2
53	1021	120	-2.2
53	1022	121	-1.1904641221321
53	1023	122	-2.2
53	1024	123	-0.95989080613705
53	1025	124	0.51328128955793
53	1026	125	-2.2
53	1027	126	-0.059769572108053
53	1028	127	0.97925093083177
53	1029	128	2.4640929528978
53	1030	129	1.8010773451533
53	1031	130	-2.2
53	1032	131	-1.7264854976415
53	1033	132	0.5695935603877
53	1034	133	0.70254474005196
53	1035	134	-1.8727411263063
53	1036	135	2.2407282871427
53	1037	136	0.28241994150449
53	1038	137	1.6030528935371
53	1039	138	1.1384683842771
53	1040	139	0.13209331977311
53	1041	140	-2.2
53	1042	141	-0.080301711921766
53	1043	142	-2.2
53	1044	143	1.1189236145001
53	1045	144	2.903165562544
53	1046	145	1.9232526132837
53	1047	146	0.67008793968764
53	1048	147	-2.0187467731768
53	1049	148	-2.2
53	1050	149	1.7024659547023
53	1051	150	1.9463852575282
53	1052	151	0.22119670076201
53	1053	152	-0.96722690538736
53	1054	153	-0.66983257616257
53	1055	154	-2.2
53	1056	155	0.063204333651811
53	1057	156	0.032120617339388
53	1058	157	2.020824023468
53	1059	158	-2.2
53	1060	159	-2.2
53	1061	160	0.48095610109158
53	1062	161	1.5087036961922
53	1063	162	1.3144702665118
53	1064	163	-2.2
53	1065	164	-0.20616275270004
53	1066	165	2.4361322036469
53	1067	166	-2.2
53	1068	167	-2.2
53	1069	168	-2.0414243701233
52	33	32	0.29445007012691
52	34	33	2.7400601099944
52	35	34	5.7820276155835
52	36	35	8.4052362758666
52	37	36	8.4832010848913
52	38	37	11.339208421065
52	39	38	9.4622369815112
52	40	39	7.2622369815112
52	41	40	8.2987391586398
52	42	41	10.200565281066
52	43	42	9.9908327067818
52	44	43	9.3692882303518
52	45	44	7.1692882303518
52	46	45	9.1770639675574
52	48	46	10.947795235014
52	123	47	8.7477952350144
52	125	48	7.3489875555484
52	200	49	5.1489875555484
52	201	50	5.5402874009664
52	203	51	8.8793887791902
52	278	52	7.713258896318
52	279	53	7.5382105237378
52	281	54	5.3382105237378
52	356	55	3.1382105237378
52	357	56	1.686276126098
52	358	57	3.1581565297899
52	360	58	4.5265319363904
52	361	59	5.5844810512141
52	436	60	8.2532078457522
52	438	61	9.1794566987307
52	513	62	10.324758850341
52	514	63	10.673473898375
52	515	64	8.4734738983747
52	517	65	9.0245593238646
52	592	66	9.2896493380499
52	594	67	7.3428849046222
52	669	68	9.7636612881078
52	670	69	10.895829282967
52	672	70	10.590178000751
52	747	71	8.3901780007511
52	748	72	6.1901780007511
52	750	73	4.6585427346045
52	825	74	5.7670740789372
52	826	75	8.1504197831137
52	828	76	9.666323451359
52	903	77	13.039974705815
52	904	78	10.839974705815
52	906	79	8.6399747058155
52	981	80	7.6787300910597
52	982	81	6.6856078216736
52	983	82	8.1780999461118
52	984	83	10.69131078419
52	985	84	10.897146342664
52	986	85	13.309097669842
52	987	86	11.605663009967
52	988	87	9.4056630099674
52	989	88	7.450473775693
52	990	89	6.478602881783
52	991	90	7.2684436494087
52	992	91	8.7179637985605
52	993	92	9.6831478769959
52	994	93	10.939963513009
52	995	94	9.9674533141329
52	996	95	7.7674533141329
52	997	96	5.6839743923273
52	998	97	7.2928242589923
52	999	98	7.3506009705242
52	1000	99	8.9916675663198
52	1001	100	9.9598088535358
52	1002	101	10.423487089381
52	1003	102	8.2234870893812
52	1004	103	6.0234870893812
52	1005	104	5.9321014693171
52	1006	105	4.6090029102682
52	1007	106	4.7125945526107
52	1008	107	7.1248551243382
52	1009	108	8.1663019582095
52	1010	109	9.6854563550489
52	1011	110	10.363667218078
52	1012	111	10.731231574708
52	1013	112	9.35898752794
52	1014	113	9.4786732674517
52	1015	114	11.020814018015
52	1016	115	13.947959917405
52	1017	116	13.390478823505
52	1018	117	12.364058849935
52	1019	118	14.860914748616
52	1020	119	12.660914748616
52	1021	120	10.460914748616
52	1022	121	9.2704506264835
52	1023	122	7.0704506264835
52	1024	123	6.1105598203465
52	1025	124	6.6238411099044
52	1026	125	4.4238411099044
52	1027	126	4.3640715377964
52	1028	127	5.3433224686281
52	1029	128	7.8074154215259
52	1030	129	9.6084927666792
52	1031	130	7.4084927666792
52	1032	131	5.6820072690377
52	1033	132	6.2516008294254
52	1034	133	6.9541455694774
52	1035	134	5.0814044431711
52	1036	135	7.3221327303138
52	1037	136	7.6045526718183
52	1038	137	9.2076055653554
52	1039	138	10.346073949632
52	1040	139	10.478167269406
52	1041	140	8.2781672694056
52	1042	141	8.1978655574838
52	1043	142	5.9978655574838
52	1044	143	7.1167891719839
52	1045	144	10.019954734528
52	1046	145	11.943207347812
52	1047	146	12.613295287499
52	1048	147	10.594548514322
52	1049	148	8.3945485143224
52	1050	149	10.097014469025
52	1051	150	12.043399726553
52	1052	151	12.264596427315
52	1053	152	11.297369521928
52	1054	153	10.627536945765
52	1055	154	8.427536945765
52	1056	155	8.4907412794168
52	1057	156	8.5228618967562
52	1058	157	10.543685920224
52	1059	158	8.3436859202243
52	1060	159	6.1436859202243
52	1061	160	6.6246420213158
52	1062	161	8.1333457175081
52	1063	162	9.4478159840199
52	1064	163	7.2478159840199
52	1065	164	7.0416532313198
52	1066	165	9.4777854349667
52	1067	166	7.2777854349667
52	1068	167	5.0777854349667
52	1069	168	3.0363610648435
51	32	31	21.431071428571
51	33	32	21.431071428571
51	34	33	21.495219479563
51	35	34	22.092161146384
51	36	35	23.351817162636
51	37	36	25.182957922735
51	38	37	27.031083873372
51	39	38	29.501411422247
51	40	39	31.562827336076
51	41	40	33.153682616627
51	42	41	38.781418140834
51	43	42	45.662872513257
51	44	43	52.402838144559
51	45	44	58.72350054735
51	46	45	64.889609438801
51	48	46	73.596370423315
51	123	47	83.983116855033
51	125	48	92.282608121738
51	200	49	99.258874372718
51	201	50	104.07456258031
51	203	51	109.06490436409
51	278	52	117.06289826446
51	279	53	124.01051584703
51	281	54	130.8004608858
51	356	55	135.60878455193
51	357	56	138.43548684542
51	358	57	139.95437812344
51	360	58	142.79946023269
51	361	59	145.99125928814
51	436	60	147.93272989612
51	438	61	150.66782658328
51	513	62	153.70988030055
51	514	63	157.13148487601
51	515	64	160.66865292575
51	517	65	163.47674534525
51	592	66	166.46746638015
51	594	67	170.38484378187
51	669	68	175.55106891327
51	670	69	184.25897457465
51	672	70	193.97662563801
51	747	71	203.4216758345
51	748	72	210.90461449418
51	750	73	216.49870962451
51	825	74	220.75879847682
51	826	75	225.22282938083
51	828	76	231.53170027351
51	903	77	239.01396355372
51	904	78	249.10761750676
51	906	79	257.49835107862
51	981	80	264.18616426928
51	982	81	270.12992153006
51	983	82	272.50041660887
51	984	83	272.68311884171
51	985	84	272.92196727413
51	986	85	273.1654141605
51	987	86	273.46274506589
51	988	87	273.72202051612
51	989	88	273.93214703017
51	990	89	274.09859378473
51	991	90	272.18228599361
51	992	91	266.55072051416
51	993	92	259.79607174103
51	994	93	252.29360161858
51	995	94	243.81735500542
51	996	95	236.09460599485
51	997	96	230.0764095202
51	998	97	225.35161282932
51	999	98	218.11731078015
51	1000	99	210.83390226417
51	1001	100	201.92442827857
51	1002	101	192.05566286575
51	1003	102	181.72745773838
51	1004	103	173.57914222811
51	1005	104	167.61071633496
51	1006	105	162.82185888675
51	1007	106	161.34650953517
51	1008	107	159.90967079454
51	1009	108	157.73734984697
51	1010	109	155.2474986853
51	1011	110	152.29446745033
51	1012	111	149.13465423327
51	1013	112	145.86277308816
51	1014	113	146.89284610896
51	1015	114	150.03405960278
51	1016	115	153.68633547827
51	1017	116	158.30866169078
51	1018	117	162.74623977606
51	1019	118	166.84366432083
51	1020	119	168.89157082343
51	1021	120	163.04162378804
51	1022	121	160.79430322528
51	1023	122	158.80273032562
51	1024	123	157.28378389858
51	1025	124	155.97105101964
51	1026	125	154.548049811
51	1027	126	153.57738309516
51	1028	127	149.95475574831
51	1029	128	145.12118497335
51	1030	129	138.0585951276
51	1031	130	129.36675028739
51	1032	131	122.66502597002
51	1033	132	117.52508084412
51	1034	133	113.23988124812
51	1035	134	106.94915951332
51	1036	135	102.35251984643
51	1037	136	94.281988644812
51	1038	137	87.009896976271
51	1039	138	78.204835770348
51	1040	139	68.311078514902
51	1041	140	58.291002885234
51	1042	141	50.374746160007
51	1043	142	42.53528046187
51	1044	143	38.607620807886
51	1045	144	36.375685396989
51	1046	145	33.233272259949
51	1047	146	29.487697288555
51	1048	147	25.531972351374
51	1049	148	22.209357697469
51	1050	149	20.540633277502
51	1051	150	22.740340001111
51	1052	151	25.364080655825
51	1053	152	28.036010591775
51	1054	153	30.497223237624
51	1055	154	32.812508072237
51	1056	155	37.838846228211
51	1057	156	43.566827677514
51	1058	157	49.316478177164
51	1059	158	56.429406880425
51	1060	159	62.46452970248
51	1061	160	68.606334179242
51	1062	161	74.891478849854
51	1063	162	82.608009694262
51	1064	163	91.571647290048
51	1065	164	98.448029720822
51	1066	165	105.01324773253
51	1067	166	113.55023963399
51	1068	167	120.10561016282
51	1069	168	124.679359319
50	32	31	171.24229591837
50	33	32	171.24229591837
50	34	33	170.95490664074
50	35	34	168.28055205379
50	36	35	162.63717510042
50	37	36	154.43349295974
50	38	37	146.15371557433
50	39	38	135.08641674295
50	40	39	125.85108034212
50	41	40	118.72969715311
50	42	41	111.7033524615
50	43	42	104.17327794205
50	44	43	96.79802836317
50	45	44	89.881603966597
50	46	45	85.130401606644
50	48	46	82.229789491328
50	123	47	78.769498966282
50	125	48	76.004566638177
50	200	49	73.694490755406
50	201	50	74.862275751442
50	203	51	77.267490341681
50	278	52	81.122314811689
50	279	53	84.47088529063
50	281	54	87.743461715606
50	356	55	90.060948320222
50	357	56	91.42334510448
50	358	57	92.155411087367
50	360	58	93.534730116344
50	361	59	96.56453688814
50	436	60	101.79878612658
50	438	61	109.58542607272
50	513	62	118.24595244624
50	514	63	127.98703508961
50	515	64	138.05711932528
50	517	65	146.05157330885
50	592	66	154.56595891998
50	594	67	162.8303371339
50	669	68	168.83715308847
50	670	69	173.2534536924
50	672	70	178.18185667799
50	747	71	182.97200743397
50	748	72	186.76705389024
50	750	73	189.39599109856
50	825	74	187.99737694113
50	826	75	184.34531035563
50	828	76	179.18396244502
50	903	77	173.06265094493
50	904	78	164.80493563784
50	906	79	157.94039586102
50	981	80	152.46903161449
50	982	81	147.60638667517
50	983	82	141.72135675287
50	984	83	133.54543183334
50	985	84	122.85696448287
50	986	85	111.96271631742
50	987	86	98.657158301215
50	988	87	87.05458190375
50	989	88	77.651420399902
50	990	89	70.202928133192
50	991	90	64.358683746347
50	992	91	59.763849713521
50	993	92	54.252684092551
50	994	93	48.131365753138
50	995	94	41.215536300219
50	996	95	34.914490860854
50	997	96	30.004201869472
50	998	97	26.988359630523
50	999	98	27.749534360707
50	1000	99	28.737136664266
50	1001	100	29.945227218624
50	1002	101	31.283394016986
50	1003	102	32.683859081254
50	1004	103	33.788739461149
50	1005	104	34.598035156669
50	1006	105	37.477461078113
50	1007	106	41.839571633848
50	1008	107	46.326630652215
50	1009	108	53.110504181608
50	1010	109	60.885982941602
50	1011	110	70.107912347951
50	1012	111	79.975594775345
50	1013	112	90.193250650027
50	1014	113	98.838305543019
50	1015	114	107.78113326288
50	1016	115	118.17892188951
50	1017	116	131.33837987117
50	1018	117	143.97187211489
50	1019	118	155.63696965474
50	1020	119	170.84595459474
50	1021	120	182.53052153775
50	1022	121	192.74676832187
50	1023	122	201.80039447944
50	1024	123	208.70547593846
50	1025	124	214.67311725989
50	1026	125	221.14203485112
50	1027	126	225.45785071452
50	1028	127	227.7018180364
50	1029	128	229.97937409119
50	1030	129	233.30723355875
50	1031	130	237.40279039751
50	1032	131	240.5606117075
50	1033	132	242.98252993065
50	1034	133	248.53723366222
50	1035	134	251.50139246802
50	1036	135	253.6673076873
50	1037	136	253.68029866252
50	1038	137	251.45819764851
50	1039	138	248.76767388646
50	1040	139	245.74448206879
50	1041	140	242.68269170201
50	1042	141	240.2637560095
50	1043	142	237.86828501283
50	1044	143	233.78505681997
50	1045	144	227.0275548117
50	1046	145	217.51345194801
50	1047	146	206.1731908151
50	1048	147	194.1966707614
50	1049	148	184.13698216697
50	1050	149	175.23154224857
50	1051	150	165.37665006528
50	1052	151	153.62204614849
50	1053	152	141.65154973755
50	1054	153	130.62508652559
50	1055	154	120.25239357801
50	1056	155	112.73476767664
50	1057	156	106.46688812313
50	1058	157	100.17529707565
50	1059	158	92.391930320831
50	1060	159	85.999341034343
50	1061	160	83.892194099789
50	1062	161	81.798330858278
50	1063	162	79.227608761357
50	1064	163	76.241419539684
50	1065	164	73.950588514952
50	1066	165	75.314697513633
50	1067	166	79.429304962944
50	1068	167	82.588822591897
50	1069	168	84.79325040049
70	122	46.268522690618	0.268522690618
70	187	48.762339075545	0.762339075545
70	277	51.465676442917	0.465676442917
70	351	54.259220719998	0.259220719998
70	427	59.077007763988	1.077007763988
70	496	61.666854977585	0.666854977585
70	571	65.686767167831	0.68676716783099
70	636	67.373335214318	0.373335214318
70	722	70.875496500845	0.875496500845
70	788	73.285722787848	0.285722787848
70	874	76.956442344147	0.95644234414699
59	37	36	1.4769521979316
59	38	37	2.851767164793
59	39	38	5.9477093111652
59	40	39	3.3813939819717
59	41	40	9.3797707225128
59	42	41	7.4284242529179
59	43	42	1.9314927072425
59	44	43	0.973
59	45	44	3.7788963570463
59	46	45	0.973
59	48	46	0.973
59	123	47	0.973
59	125	48	0.973
59	200	49	0.973
59	201	50	5.6763218631722
59	203	51	0.973
59	278	52	0.973
59	279	53	1.2529896461604
59	281	54	2.2240370077238
59	356	55	3.4195138034415
59	357	56	3.0233546172113
59	358	57	7.3320251899147
59	360	58	0.973
59	361	59	0.973
59	436	60	0.973
59	438	61	2.5264598915826
59	513	62	4.1483538691281
59	514	63	3.9480660293622
59	515	64	1.9589710237411
59	517	65	7.8183733242487
59	592	66	4.8231957085442
59	594	67	3.1216641932853
59	669	68	0.973
59	670	69	6.4242516315033
59	672	70	0.973
59	747	71	0.973
59	748	72	0.973
59	750	73	0.973
59	825	74	0.973
59	826	75	0.973
59	828	76	0.973
59	903	77	2.9607070678019
59	904	78	4.0341199305612
59	906	79	5.8231103341058
59	981	80	6.4214391758523
59	982	81	0.973
59	983	82	0.973
59	984	83	0.973
59	985	84	0.973
59	986	85	0.973
59	987	86	0.973
59	988	87	5.7470869679131
59	989	88	6.7141828534196
59	990	89	2.2391899181065
59	991	90	6.9830079151482
59	992	91	0.973
59	993	92	0.973
59	994	93	3.3577225279364
59	995	94	0.973
59	996	95	0.973
59	997	96	7.3072429970149
59	998	97	8.4207272472538
59	999	98	1.3588030724176
59	1000	99	6.6388629960733
59	1001	100	0.973
59	1002	101	0.973
59	1003	102	0.973
59	1004	103	2.679646289617
59	1005	104	2.7151067639765
59	1006	105	4.5546512529928
59	1007	106	4.7928973426331
59	1008	107	0.973
59	1009	108	0.973
59	1010	109	0.973
59	1011	110	0.973
59	1012	111	4.8365730803095
59	1013	112	9.1874617006871
59	1014	113	0.973
59	1015	114	1.222365951315
59	1016	115	0.973
59	1017	116	7.8181077882244
59	1018	117	4.9968343775234
59	1019	118	0.973
59	1020	119	0.973
59	1021	120	0.973
59	1022	121	0.973
59	1023	122	1.4409930544245
59	1024	123	4.5415868020501
59	1025	124	5.2978952978971
59	1026	125	1.7937092882816
59	1027	126	0.973
59	1028	127	1.2845582004293
59	1029	128	0.973
59	1030	129	0.973
59	1031	130	4.0001220586659
59	1032	131	2.023570388921
59	1033	132	0.973
59	1034	133	2.1507384516029
59	1035	134	3.6741771226639
59	1036	135	9.1320256183315
59	1037	136	0.973
59	1038	137	4.4160913335433
59	1039	138	0.973
59	1040	139	0.973
59	1041	140	0.973
59	1042	141	3.2061178830981
59	1043	142	4.1788014374634
59	1044	143	3.0433703000022
59	1045	144	11.783780883702
59	1046	145	0.973
59	1047	146	0.973
59	1048	147	0.973
59	1049	148	0.973
59	1050	149	3.8003876438734
59	1051	150	2.5940243769387
59	1052	151	2.3595070001425
59	1053	152	2.0873452774469
59	1054	153	2.0125528247493
59	1055	154	3.4931524503154
59	1056	155	3.5045843250781
59	1057	156	0.973
59	1058	157	0.973
59	1059	158	0.973
59	1060	159	2.3046222087593
59	1061	160	2.0312464062778
59	1062	161	3.2869086861672
59	1063	162	9.2875555941099
59	1064	163	5.1648158055764
59	1065	164	0.973
59	1066	165	1.4776896498955
59	1067	166	0.973
59	1068	167	0.973
59	1069	168	0.973
58	37	36	0.24907541333232
58	38	37	1.3325351247331
58	39	38	2.5517912879586
58	40	39	0.92794477683492
58	41	40	2.8634144356474
58	42	41	1.7826651196202
58	43	42	0.0027791971806437
58	44	43	-2.2
58	45	44	0.72665057784484
58	46	45	-2.2
58	48	46	-2.2
58	123	47	-0.21237355048339
58	125	48	-1.1268879110477
58	200	49	-0.54612053314299
58	201	50	2.3396299390825
58	203	51	-2.139971494372
58	278	52	-2.2
58	279	53	-0.009194791666232
58	281	54	0.94951207959093
58	356	55	1.5233367070323
58	357	56	1.0005750986747
58	358	57	2.5983043646962
58	360	58	-2.2
58	361	59	-1.0489850980307
58	436	60	-2.2
58	438	61	1.038803031086
58	513	62	1.7385150834822
58	514	63	1.2969463183545
58	515	64	0.21780617849436
58	517	65	2.4349585509626
58	592	66	1.0901901407349
58	594	67	0.44465041917283
58	669	68	-2.2
58	670	69	1.6814564923914
58	672	70	-0.47452570446017
58	747	71	-0.42285818734672
58	748	72	-0.88034236331236
58	750	73	-0.24806699134254
58	825	74	-1.5758355409296
58	826	75	-2.2
58	828	76	-2.2
58	903	77	1.3895441708155
58	904	78	1.6606989469146
58	906	79	2.0647864326602
58	981	80	1.8763205603464
58	982	81	-0.55832102849966
58	983	82	-2.2
58	984	83	-2.2
58	985	84	-2.1394118126127
58	986	85	-0.12879279438692
58	987	86	-1.2597371968441
58	988	87	3.4036286021583
58	989	88	2.6806617476977
58	990	89	0.33506474364549
58	991	90	2.0939625774045
58	992	91	-1.3782194434127
58	993	92	-2.2
58	994	93	0.96856883690083
58	995	94	-2.2
58	996	95	-2.2
58	997	96	3.497274323483
58	998	97	2.863612615387
58	999	98	-0.1289716781255
58	1000	99	1.7596951531448
58	1001	100	-2.2
58	1002	101	-1.339100489323
58	1003	102	-2.2
58	1004	103	0.79098940955009
58	1005	104	0.70835704891942
58	1006	105	1.4320755966473
58	1007	106	1.3040628471645
58	1008	107	-1.4253958955626
58	1009	108	-1.4031613125
58	1010	109	-1.2602614971066
58	1011	110	-0.40636393933537
58	1012	111	1.8945357494522
58	1013	112	3.0074168934952
58	1014	113	-1.6989391177498
58	1015	114	-0.17231412772089
58	1016	115	-2.0737407720182
58	1017	116	2.8015072754351
58	1018	117	1.2978632265778
58	1019	118	-2.2
58	1020	119	-2.2
58	1021	120	-2.2
58	1022	121	-1.0205501141058
58	1023	122	0.24034754966851
58	1024	123	2.3870897067245
58	1025	124	2.0775291414466
58	1026	125	0.1454325222573
58	1027	126	-1.6406750611088
58	1028	127	-0.092476551951547
58	1029	128	-2.2
58	1030	129	-0.98452830109745
58	1031	130	2.1974813645938
58	1032	131	0.48215265238522
58	1033	132	-1.9444444444444
58	1034	133	0.79385350376833
58	1035	134	1.5890585550168
58	1036	135	3.3604438985931
58	1037	136	-1.9444444444444
58	1038	137	1.3529987673519
58	1039	138	-0.48120351131232
58	1040	139	-2.2
58	1041	140	-0.43115096612935
58	1042	141	1.0907999037299
58	1043	142	1.3641220548478
58	1044	143	0.69221441445801
58	1045	144	3.4015602990985
58	1046	145	-2.2
58	1047	146	-2.2
58	1048	147	-2.2
58	1049	148	-2.2
58	1050	149	1.923353477949
58	1051	150	0.80585938319564
58	1052	151	0.56805887096561
58	1053	152	0.36319466808345
58	1054	153	0.29520543781109
58	1055	154	0.97422341513447
58	1056	155	0.86022188045818
58	1057	156	-1.1291479179519
58	1058	157	-2.2
58	1059	158	-2.2
58	1060	159	0.90112424470918
58	1061	160	0.55143416486681
58	1062	161	1.2298271955224
58	1063	162	3.3126795873977
58	1064	163	1.3028671663487
58	1065	164	-0.26996311253997
58	1066	165	-0.097116091314964
58	1067	166	-2.2
58	1068	167	-1.889530683565
58	1069	168	-1.5517452048864
57	36	35	3.1079646029975
57	37	36	3.3570400163298
57	38	37	4.689575141063
57	39	38	7.2413664290216
57	40	39	8.1693112058565
57	41	40	11.032725641504
57	42	41	12.815390761124
57	43	42	12.818169958305
57	44	43	10.618169958305
57	45	44	11.34482053615
57	46	45	9.1448205361496
57	48	46	6.9448205361496
57	123	47	6.7324469856662
57	125	48	5.6055590746185
57	200	49	5.0594385414755
57	201	50	7.399068480558
57	203	51	5.259096986186
57	278	52	3.059096986186
57	279	53	3.0499021945197
57	281	54	3.9994142741107
57	356	55	5.522750981143
57	357	56	6.5233260798177
57	358	57	9.1216304445139
57	360	58	6.9216304445139
57	361	59	5.8726453464832
57	436	60	3.6726453464831
57	438	61	4.7114483775691
57	513	62	6.4499634610513
57	514	63	7.7469097794058
57	515	64	7.9647159579001
57	517	65	10.399674508863
57	592	66	11.489864649598
57	594	67	11.934515068771
57	669	68	9.7345150687705
57	670	69	11.415971561162
57	672	70	10.941445856702
57	747	71	10.518587669355
57	748	72	9.6382453060427
57	750	73	9.3901783147001
57	825	74	7.8143427737705
57	826	75	5.6143427737705
57	828	76	3.4143427737705
57	903	77	4.803886944586
57	904	78	6.4645858915006
57	906	79	8.5293723241608
57	981	80	10.405692884507
57	982	81	9.8473718560075
57	983	82	7.6473718560075
57	984	83	5.4473718560075
57	985	84	3.3079600433948
57	986	85	3.1791672490078
57	987	86	1.9194300521638
57	988	87	5.323058654322
57	989	88	8.0037204020198
57	990	89	8.3387851456653
57	991	90	10.43274772307
57	992	91	9.054528279657
57	993	92	6.854528279657
57	994	93	7.8230971165579
57	995	94	5.6230971165579
57	996	95	3.4230971165579
57	997	96	6.9203714400409
57	998	97	9.7839840554278
57	999	98	9.6550123773023
57	1000	99	11.414707530447
57	1001	100	9.2147075304471
57	1002	101	7.8756070411241
57	1003	102	5.6756070411241
57	1004	103	6.4665964506742
57	1005	104	7.1749534995936
57	1006	105	8.6070290962409
57	1007	106	9.9110919434054
57	1008	107	8.4856960478428
57	1009	108	7.0825347353428
57	1010	109	5.8222732382362
57	1011	110	5.4159092989009
57	1012	111	7.310445048353
57	1013	112	10.317861941848
57	1014	113	8.6189228240985
57	1015	114	8.4466086963776
57	1016	115	6.3728679243594
57	1017	116	9.1743751997946
57	1018	117	10.472238426372
57	1019	118	8.2722384263723
57	1020	119	6.0722384263723
57	1021	120	3.8722384263723
57	1022	121	2.8516883122665
57	1023	122	3.092035861935
57	1024	123	5.4791255686595
57	1025	124	7.5566547101061
57	1026	125	7.7020872323634
57	1027	126	6.0614121712546
57	1028	127	5.9689356193031
57	1029	128	3.7689356193031
57	1030	129	2.7844073182056
57	1031	130	4.9818886827995
57	1032	131	5.4640413351847
57	1033	132	3.5195968907402
57	1034	133	4.3134503945086
57	1035	134	5.9025089495253
57	1036	135	9.2629528481184
57	1037	136	7.318508403674
57	1038	137	8.6715071710259
57	1039	138	8.1903036597136
57	1040	139	5.9903036597136
57	1041	140	5.5591526935842
57	1042	141	6.6499525973142
57	1043	142	8.014074652162
57	1044	143	8.70628906662
57	1045	144	12.107849365718
57	1046	145	9.9078493657184
57	1047	146	7.7078493657184
57	1048	147	5.5078493657184
57	1049	148	3.3078493657184
57	1050	149	5.2312028436675
57	1051	150	6.0370622268631
57	1052	151	6.6051210978287
57	1053	152	6.9683157659122
57	1054	153	7.2635212037233
57	1055	154	8.2377446188578
57	1056	155	9.0979664993159
57	1057	156	7.968818581364
57	1058	157	5.768818581364
57	1059	158	3.568818581364
57	1060	159	4.4699428260732
57	1061	160	5.02137699094
57	1062	161	6.2512041864624
57	1063	162	9.5638837738601
57	1064	163	10.866750940209
57	1065	164	10.596787827669
57	1066	165	10.499671736354
57	1067	166	8.2996717363539
57	1068	167	6.4101410527889
57	1069	168	4.8583958479025
56	35	34	21.431071428571
56	36	35	21.431071428571
56	37	36	22.108163717082
56	38	37	22.839518863496
56	39	38	23.861176304942
56	40	39	25.43875970555
56	41	40	30.338502503969
56	42	41	32.742060590154
56	43	42	35.53398500597
56	44	43	41.926769210592
56	45	44	49.089945963388
56	46	45	56.743332097561
56	48	46	62.91256522627
56	123	47	68.258970738387
56	125	48	74.646395622024
56	200	49	79.964682954423
56	201	50	84.764837148858
56	203	51	91.784720740822
56	278	52	96.774301353421
56	279	53	99.676626801007
56	281	54	102.496491305
56	356	55	106.09983276984
56	357	56	111.07565078877
56	358	57	116.95295424899
56	360	58	125.17124496731
56	361	59	131.40740763404
56	436	60	136.69846903326
56	438	61	140.0074023809
56	513	62	143.41686947326
56	514	63	145.5874483333
56	515	64	148.15594248476
56	517	65	150.79665044941
56	592	66	154.24467087481
56	594	67	158.05414471585
56	669	68	162.01104276004
56	670	69	165.23852903953
56	672	70	165.59091764663
56	747	71	163.24036448268
56	748	72	160.98065403396
56	750	73	158.91006772428
56	825	74	156.89277369963
56	826	75	155.21401676279
56	828	76	154.00788629857
56	903	77	152.54118499073
56	904	78	148.19558771901
56	906	79	142.34772178525
56	981	80	134.6320495538
56	982	81	125.21905729756
56	983	82	116.31112237638
56	984	83	109.39330797803
56	985	84	104.46561410251
56	986	85	101.47323266112
56	987	86	99.0209469324
56	988	87	96.927061967759
56	989	88	91.836720410299
56	990	89	84.18291209774
56	991	90	76.208687629776
56	992	91	66.23204586384
56	993	92	57.573369606778
56	994	93	51.018512254156
56	995	94	43.537430615478
56	996	95	39.1075851266
56	997	96	37.980276011305
56	998	97	35.80994024607
56	999	98	32.741531172084
56	1000	99	29.713569615714
56	1001	100	26.133740380005
56	1002	101	23.243865249345
56	1003	102	20.773952791267
56	1004	103	20.945415396653
56	1005	104	22.354209623407
56	1006	105	23.917324492961
56	1007	106	25.792427260357
56	1008	107	27.951629433742
56	1009	108	29.800298929879
56	1010	109	31.343279711507
56	1011	110	32.611703524123
56	1012	111	35.185346986512
56	1013	112	40.117082890965
56	1014	113	47.077667350493
56	1015	114	52.89212199288
56	1016	115	58.590330939567
56	1017	116	63.946719237601
56	1018	117	72.650929247387
56	1019	118	82.586490040425
56	1020	119	90.434795668451
56	1021	120	96.195846131465
56	1022	121	99.879270675859
56	1023	122	102.58885678605
56	1024	123	105.37396785376
56	1025	124	110.30921891296
56	1026	125	117.1157773126
56	1027	126	124.05333216423
56	1028	127	129.51307030374
56	1029	128	134.88951139243
56	1030	129	138.28433110848
56	1031	130	139.41216371621
56	1032	131	143.26171033504
56	1033	132	145.13118534407
56	1034	133	146.2981105164
56	1035	134	150.74634064895
56	1036	135	149.68522003153
56	1037	136	152.7563594785
56	1038	137	158.1974837149
56	1039	138	161.0712039676
56	1040	139	163.78545433245
56	1041	140	165.77062906704
56	1042	141	167.61292122784
56	1043	142	171.07853133035
56	1044	143	178.32810332206
56	1045	144	184.64297160412
56	1046	145	195.44158566167
56	1047	146	204.2780881824
56	1048	147	211.1524791663
56	1049	148	216.11762699445
56	1050	149	219.3147660827
56	1051	150	223.44948767339
56	1052	151	228.1225041773
56	1053	152	233.2352293308
56	1054	153	238.62908703094
56	1055	154	244.25144989322
56	1056	155	250.62791498706
56	1057	156	257.67023888663
56	1058	157	263.83854051217
56	1059	158	268.30392175652
56	1060	159	271.03502831475
56	1061	160	272.47794543654
56	1062	161	272.59012513527
56	1063	162	272.72977969689
56	1064	163	272.94344093013
56	1065	164	273.18620877029
56	1066	165	273.42294551963
56	1067	166	273.65751265416
56	1068	167	273.84293085253
56	1069	168	270.78613613137
55	35	34	171.24229591837
55	36	35	171.24229591837
55	37	36	168.20885903799
55	38	37	164.93231947103
55	39	38	160.35519842774
55	40	39	153.28747701003
55	41	40	146.01406255248
55	42	41	135.2458971687
55	43	42	122.73781424726
55	44	43	113.00397713775
55	45	44	105.16562614021
55	46	45	96.790860458781
55	48	46	90.040138493198
55	123	47	87.374392666906
55	125	48	85.246455304654
55	200	49	83.474695554211
55	201	50	81.875549162513
55	203	51	79.536911472656
55	278	52	77.87465865545
55	279	53	76.907764035185
55	281	54	77.651448392107
55	356	55	79.387721056018
55	357	56	81.785322529867
55	358	57	84.61730540883
55	360	58	88.577294673664
55	361	59	91.582194118138
55	436	60	94.131695840414
55	438	61	95.72610774233
55	513	62	98.703801886499
55	514	63	104.77707071803
55	515	64	112.08603449004
55	517	65	119.60049148622
55	592	66	129.41225467831
55	594	67	140.25257770525
55	669	68	151.51241430565
55	670	69	160.69662065396
55	672	70	170.94151389191
55	747	71	181.62705275093
55	748	72	191.89962355691
55	750	73	201.31244212763
55	825	74	210.48299568964
55	826	75	218.1145705711
55	828	76	223.597600754
55	903	77	226.48310461405
55	904	78	228.53072982503
55	906	79	231.28621703833
55	981	80	234.92180588673
55	982	81	239.35716403187
55	983	82	243.55454151115
55	984	83	246.81418346166
55	985	84	249.13608988339
55	986	85	250.54608609269
55	987	86	251.65688605575
[...]
40	1010	109	140.69449329745
40	1011	110	151.59520201147
40	1012	111	162.53737186846
40	1013	112	173.14230396363
40	1014	113	184.16842153001
40	1015	114	195.90720835979
40	1016	115	205.49745049103
40	1017	116	212.93914792372
40	1018	117	219.85253812248
40	1019	118	224.61738362268
40	1020	119	226.61473759083
40	1021	120	228.31152619955
40	1022	121	231.12381759341
40	1023	122	234.54426110024
40	1024	123	237.77946169041
40	1025	124	241.82365172221
40	1026	125	244.93010622523
40	1027	126	249.98882519948
40	1028	127	253.53249564682
40	1029	128	254.12582253134
40	1030	129	252.09624032519
40	1031	130	249.58955695583
40	1032	131	246.71154549277
40	1033	132	243.36171416045
40	1034	133	240.58995820893
40	1035	134	238.46105693168
40	1036	135	235.04124230696
40	1037	136	230.80028489636
40	1038	137	224.9273898627
40	1039	138	218.99876595747
40	1040	139	211.71561159312
40	1041	140	202.6603480036
40	1042	141	191.12990234133
40	1043	142	181.6883908963
40	1044	143	173.35003379769
40	1045	144	165.34068856065
40	1046	145	154.52739713798
40	1047	146	141.05857533889
40	1048	147	129.73699843777
40	1049	148	120.5626664346
40	1050	149	113.87580531345
40	1051	150	106.50157481448
40	1052	151	98.962350534881
40	1053	152	92.522466200263
40	1054	153	87.088795768221
40	1055	154	84.514103247877
40	1056	155	82.409896771844
40	1057	156	80.265235135355
40	1058	157	77.43599540529
40	1059	158	75.182722170583
40	1060	159	73.491688869029
40	1061	160	74.562334860949
40	1062	161	77.328751420573
40	1063	162	81.025517299408
40	1064	163	84.356175614052
40	1065	164	87.61143412713
40	1066	165	89.911602819848
40	1067	166	91.256681692207
40	1068	167	92.114614917184
40	1069	168	92.964057364452
68	114	46.26852261678	0.26852261678
68	191	48.762339077824	0.762339077824
68	265	51.465676353812	0.465676353812
68	343	54.259220662315	0.259220662315
68	415	59.077007625414	1.077007625414
68	476	61.666854799252	0.666854799252
68	551	65.686766922806	0.686766922806
68	640	67.373335258379	0.373335258379
68	726	70.875496621476	0.875496621476
68	886	76.956442549897	0.95644254989701
68	940	79.957570545397	0.957570545397
49	31	30	1.7030272847926
49	32	31	3.473629006282
49	33	32	2.4424375128842
49	34	33	4.0005820548079
49	35	34	3.1480412072583
49	36	35	5.0815050120469
49	37	36	2.4296074796884
49	38	37	9.7931415123034
49	39	38	9.5647431436663
49	40	39	0.973
49	41	40	0.973
49	42	41	0.973
49	43	42	1.6364511215879
49	44	43	0.973
49	45	44	0.973
49	46	45	0.973
49	48	46	4.9621022337154
49	123	47	0.973
49	125	48	1.8384392672859
49	200	49	6.6610166176696
49	201	50	3.2885622391828
49	203	51	0.973
49	278	52	0.973
49	279	53	1.7516433071799
49	281	54	0.973
49	356	55	1.8088039434555
49	357	56	7.8742118181827
49	358	57	5.2352773255326
49	360	58	12.888867414757
49	361	59	12.319739181123
49	436	60	0.973
49	438	61	2.2621116824873
49	513	62	3.449024698858
49	514	63	0.973
49	515	64	0.973
49	517	65	0.973
49	592	66	0.973
49	594	67	1.7959611836195
49	669	68	3.3261317195742
49	670	69	0.973
49	672	70	4.7505385492774
49	747	71	4.0016327329744
49	748	72	6.0281286192873
49	750	73	3.7393443531552
49	825	74	0.973
49	826	75	0.973
49	828	76	0.973
49	903	77	0.973
49	904	78	4.6023415806364
49	906	79	4.6700731962132
49	981	80	2.9294795647114
49	982	81	1.7384695996316
49	983	82	0.973
49	984	83	0.973
49	985	84	2.2591605893724
49	986	85	10.00946568826
49	987	86	1.9924614258191
49	988	87	4.5009767279947
49	989	88	0.973
49	990	89	0.973
49	991	90	2.3170301015346
49	992	91	7.6611701113816
49	993	92	7.8026693844496
49	994	93	1.8962117542475
49	995	94	0.973
49	996	95	0.973
49	997	96	0.973
49	998	97	4.4476267455836
49	999	98	12.482221246928
49	1000	99	0.973
49	1001	100	0.973
49	1002	101	9.5035651755262
49	1003	102	0.973
49	1004	103	0.973
49	1005	104	0.973
49	1006	105	1.6297778801644
49	1007	106	0.973
49	1008	107	2.4025294586411
49	1009	108	0.973
49	1010	109	2.0322149979514
49	1011	110	0.973
49	1012	111	0.973
49	1013	112	0.973
49	1014	113	3.6196409276082
49	1015	114	6.2769220858609
49	1016	115	6.7628306569877
49	1017	116	4.126202100492
49	1018	117	2.710844416916
49	1019	118	2.8689515529871
49	1020	119	9.6300551700819
49	1021	120	0.973
49	1022	121	5.4476266114382
49	1023	122	0.973
49	1024	123	0.973
49	1025	124	1.8264185961708
49	1026	125	0.973
49	1027	126	0.973
49	1028	127	0.973
49	1029	128	0.973
49	1030	129	3.8154915773731
49	1031	130	7.6509384853475
49	1032	131	4.3207404676763
49	1033	132	12.366768148502
49	1034	133	0.973
49	1035	134	0.973
49	1036	135	0.973
49	1037	136	0.973
49	1038	137	1.5777064020234
49	1039	138	3.6492965257968
49	1040	139	6.9917673773956
49	1041	140	5.5864362062091
49	1042	141	1.8044302715784
49	1043	142	5.0736130763129
49	1044	143	0.973
49	1045	144	0.973
49	1046	145	0.973
49	1047	146	0.973
49	1048	147	4.2877342929539
49	1049	148	5.8745852970873
49	1050	149	2.5436043411742
49	1051	150	7.5884155827393
49	1052	151	0.973
49	1053	152	0.973
49	1054	153	2.6043104779172
49	1055	154	0.973
49	1056	155	8.6349189760308
49	1057	156	3.8589231857036
49	1058	157	3.8923677614012
49	1059	158	0.973
49	1060	159	0.973
49	1061	160	0.973
49	1062	161	0.973
49	1063	162	1.8440086239843
49	1064	163	8.0302825134063
49	1065	164	4.3282006019521
49	1066	165	4.3008778630058
49	1067	166	6.2915174705895
49	1068	167	1.876155063276
49	1069	168	0.973
48	31	30	1.0726311643375
48	32	31	2.179353186395
48	33	32	0.89481760887429
48	34	33	1.5991739570163
48	35	34	0.9044313573977
48	36	35	1.5810685937759
48	37	36	0.34598992730025
48	38	37	2.7097394850571
48	39	38	2.1715803470779
48	40	39	-1.92686614816
48	41	40	-2.2
48	42	41	-1.6753113018912
48	43	42	0.027570400783532
48	44	43	-2.2
48	45	44	-2.2
48	46	45	-1.5256503798907
48	48	46	2.7608780369471
48	123	47	-1.0822159261945
48	125	48	0.43077097736271
48	200	49	2.8272348549217
48	201	50	0.84862732933745
48	203	51	-2.2
48	278	52	-2.2
48	279	53	0.39752977309815
48	281	54	-0.12885596681542
48	356	55	0.41077152830813
48	357	56	3.2943588694325
48	358	57	1.5599793262081
48	360	58	3.4875905736117
48	361	59	2.6693809662247
48	436	60	-2.2
48	438	61	0.081374645842173
48	513	62	0.41838590503466
48	514	63	-2.2
48	515	64	-1.5611096498481
48	517	65	-2.2
48	592	66	-2.2
48	594	67	0.25339022270352
48	669	68	1.0661050418416
48	670	69	-2.2
48	672	70	1.9654804641614
48	747	71	1.2444900987903
48	748	72	1.8086283548037
48	750	73	0.77134205589775
48	825	74	-1.6237718798104
48	826	75	-0.56619667708977
48	828	76	-1.8088683351409
48	903	77	-0.73647107696161
48	904	78	1.6661048248643
48	906	79	1.3971436918946
48	981	80	0.54929577652365
48	982	81	0.034278012627883
48	983	82	-0.78706064219586
48	984	83	-2.2
48	985	84	0.45049461536109
48	986	85	3.3025594823994
48	987	86	0.1053155354457
48	988	87	0.97300430003088
48	989	88	-1.1663786213173
48	990	89	-1.9066650225525
48	991	90	0.34174760822207
48	992	91	2.226484472747
48	993	92	1.8916531584691
48	994	93	-0.010281831141269
48	995	94	-2.2
48	996	95	-2.2
48	997	96	-0.53504027717281
48	998	97	1.2710879454389
48	999	98	3.4621349262306
48	1000	99	-1.1962932398279
48	1001	100	-2.2
48	1002	101	2.6626066332683
48	1003	102	-1.1285064132633
48	1004	103	-2.2
48	1005	104	-1.3923208496555
48	1006	105	0.075202488683576
48	1007	106	-0.67475533588046
48	1008	107	0.53053375184978
48	1009	108	-1.2958384109213
48	1010	109	0.39716812814333
48	1011	110	-2.2
48	1012	111	-0.84868795891823
48	1013	112	-2.2
48	1014	113	2.6483564952
48	1015	114	3.0048753949814
48	1016	115	2.3683467152296
48	1017	116	1.0088917813264
48	1018	117	0.3952390258735
48	1019	118	0.42712844554993
48	1020	119	2.3999221775448
48	1021	120	-2.2
48	1022	121	1.2098377811449
48	1023	122	-1.8169535386214
48	1024	123	-2.0734298005309
48	1025	124	0.12209896680433
48	1026	125	-2.2
48	1027	126	-2.2
48	1028	127	-0.52743285312317
48	1029	128	-0.20755919977091
48	1030	129	1.916615613387
48	1031	130	3.0376428522868
48	1032	131	1.170028622495
48	1033	132	3.3701138789766
48	1034	133	-2.2
48	1035	134	-1.9118017189082
48	1036	135	-2.2
48	1037	136	-2.0535777635555
48	1038	137	0.20482780912425
48	1039	138	1.4892225315562
48	1040	139	2.5614406242967
48	1041	140	1.5613994715968
48	1042	141	0.03740104928147
48	1043	142	1.1766036289423
48	1044	143	-2.2
48	1045	144	-2.2
48	1046	145	-2.2
48	1047	146	-1.6862294084858
48	1048	147	2.2104054212105
48	1049	148	2.3222633319674
48	1050	149	0.49381550948601
48	1051	150	2.3020754846511
48	1052	151	-1.8689504734122
48	1053	152	-2.2
48	1054	153	0.64846046465093
48	1055	154	-2.2
48	1056	155	3.4800569948275
48	1057	156	0.97923728358001
48	1058	157	0.88201191188769
48	1059	158	-2.2
48	1060	159	-0.7064814525938
48	1061	160	-1.1955755475676
48	1062	161	-2.2
48	1063	162	0.47560272028204
48	1064	163	3.4210648450535
48	1065	164	1.2335922300117
48	1066	165	1.0616534819128
48	1067	166	1.576736054616
48	1068	167	0.016935256462112
48	1069	168	-2.2
47	30	29	0.85849638667423
47	31	30	1.9311275510117
47	32	31	4.1104807374068
47	33	32	5.0052983462811
47	34	33	6.6044723032974
47	35	34	7.5089036606951
47	36	35	9.0899722544709
47	37	36	9.4359621817712
47	38	37	12.145701666828
47	39	38	14.317282013906
47	40	39	12.390415865746
47	41	40	10.190415865746
47	42	41	8.5151045638549
47	43	42	8.5426749646385
47	44	43	6.3426749646385
47	45	44	4.1426749646385
47	46	45	2.6170245847477
47	48	46	5.3779026216948
47	123	47	4.2956866955004
47	125	48	4.7264576728631
47	200	49	7.5536925277848
47	201	50	8.4023198571223
47	203	51	6.2023198571223
47	278	52	4.0023198571223
47	279	53	4.3998496302204
47	281	54	4.270993663405
47	356	55	4.6817651917131
47	357	56	7.9761240611456
47	358	57	9.5361033873537
47	360	58	13.023693960965
47	361	59	15.69307492719
47	436	60	13.49307492719
47	438	61	13.574449573032
47	513	62	13.992835478067
47	514	63	11.792835478067
47	515	64	10.231725828219
47	517	65	8.0317258282188
47	592	66	5.8317258282188
47	594	67	6.0851160509223
47	669	68	7.1512210927639
47	670	69	4.9512210927639
47	672	70	6.9167015569253
47	747	71	8.1611916557155
47	748	72	9.9698200105192
47	750	73	10.741162066417
47	825	74	9.1173901866066
47	826	75	8.5511935095168
47	828	76	6.7423251743759
47	903	77	6.0058540974143
47	904	78	7.6719589222786
47	906	79	9.0691026141732
47	981	80	9.6183983906969
47	982	81	9.6526764033248
47	983	82	8.8656157611289
47	984	83	6.6656157611289
47	985	84	7.11611037649
47	986	85	10.418669858889
47	987	86	10.523985394335
47	988	87	11.496989694366
47	989	88	10.330611073049
47	990	89	8.4239460504961
47	991	90	8.7656936587182
47	992	91	10.992178131465
47	993	92	12.883831289934
47	994	93	12.873549458793
47	995	94	10.673549458793
47	996	95	8.473549458793
47	997	96	7.9385091816202
47	998	97	9.2095971270591
47	999	98	12.67173205329
47	1000	99	11.475438813462
47	1001	100	9.2754388134619
47	1002	101	11.93804544673
47	1003	102	10.809539033467
47	1004	103	8.6095390334669
47	1005	104	7.2172181838114
47	1006	105	7.292420672495
47	1007	106	6.6176653366145
47	1008	107	7.1481990884643
47	1009	108	5.852360677543
47	1010	109	6.2495288056863
47	1011	110	4.0495288056863
47	1012	111	3.2008408467681
47	1013	112	1.0008408467681
47	1014	113	3.649197341968
47	1015	114	6.6540727369494
47	1016	115	9.0224194521789
47	1017	116	10.031311233505
47	1018	117	10.426550259379
47	1019	118	10.853678704929
47	1020	119	13.253600882474
47	1021	120	11.053600882474
47	1022	121	12.263438663618
47	1023	122	10.446485124997
47	1024	123	8.3730553244662
47	1025	124	8.4951542912705
47	1026	125	6.2951542912705
47	1027	126	4.0951542912705
47	1028	127	3.5677214381474
47	1029	128	3.3601622383765
47	1030	129	5.2767778517634
47	1031	130	8.3144207040502
47	1032	131	9.4844493265452
47	1033	132	12.854563205522
47	1034	133	10.654563205522
47	1035	134	8.7427614866136
47	1036	135	6.5427614866136
47	1037	136	4.4891837230581
47	1038	137	4.6940115321824
47	1039	138	6.1832340637385
47	1040	139	8.7446746880352
47	1041	140	10.306074159632
47	1042	141	10.343475208913
47	1043	142	11.520078837856
47	1044	143	9.3200788378558
47	1045	144	7.1200788378558
47	1046	145	4.9200788378558
47	1047	146	3.23384942937
47	1048	147	5.4442548505804
47	1049	148	7.7665181825478
47	1050	149	8.2603336920338
47	1051	150	10.562409176685
47	1052	151	8.6934587032728
47	1053	152	6.4934587032728
47	1054	153	7.1419191679237
47	1055	154	4.9419191679237
47	1056	155	8.4219761627512
47	1057	156	9.4012134463312
47	1058	157	10.283225358219
47	1059	158	8.0832253582189
47	1060	159	7.3767439056251
47	1061	160	6.1811683580575
47	1062	161	3.9811683580575
47	1063	162	4.4567710783395
47	1064	163	7.877835923393
47	1065	164	9.1114281534047
47	1066	165	10.173081635318
47	1067	166	11.749817689934
47	1068	167	11.766752946396
47	1069	168	9.5667529463957
46	29	28	21.431071428571
46	30	29	21.431071428571
46	31	30	21.618100998525
46	32	31	22.038810929282
46	33	32	26.054308518502
46	34	33	27.144748515371
46	35	34	28.583579981446
46	36	35	30.219448278955
46	37	36	32.199763662965
46	38	37	34.255455423993
46	39	38	37.514025678141
46	40	39	47.172678919514
46	41	40	55.53143934956
46	42	41	62.406046774142
46	43	42	69.03643351066
46	44	43	77.141316439279
46	45	44	83.158944202886
46	46	45	87.08931680148
46	48	46	89.572225020334
46	123	47	94.674522758545
46	125	48	98.750065596025
46	200	49	103.12711912423
46	201	50	109.93274905714
46	203	51	117.50296446042
46	278	52	123.09105181212
46	279	53	126.69701111223
46	281	54	130.66113173715
46	356	55	134.50915735006
46	357	56	138.72727467617
46	358	57	144.06028395587
46	360	58	147.22198668322
46	361	59	151.5400028628
46	436	60	156.74305444293
46	438	61	161.21669425837
46	513	62	165.67010678137
46	514	63	164.72709806139
46	515	64	162.19364068218
46	517	65	159.99555682442
46	592	66	158.27009943929
46	594	67	157.01726852678
46	669	68	155.71000173829
46	670	69	154.17370337464
46	672	70	153.21914176955
46	747	71	146.9622918974
46	748	72	139.57967598612
46	750	73	130.56097443527
46	825	74	120.84451667735
46	826	75	112.59692334779
46	828	76	104.86151166688
46	903	77	97.539203662239
46	904	78	91.745495742981
46	906	79	84.408944736261
46	981	80	75.736331315346
46	982	81	66.538436604077
46	983	82	57.307762469637
46	984	83	48.829739725195
46	985	84	42.455535885194
46	986	85	38.23076940958
46	987	86	34.963313028541
46	988	87	31.662828062954
46	989	88	28.057193865078
46	990	89	24.817354084392
46	991	90	22.175474012462
46	992	91	20.645027646702
46	993	92	23.0397521682
46	994	93	25.846586842079
46	995	94	28.651181545601
46	996	95	30.976490534838
46	997	96	32.82251380979
46	998	97	37.539924463296
46	999	98	43.752856852042
46	1000	99	52.301397402647
46	1001	100	60.042900586294
46	1002	101	68.743377738597
46	1003	102	80.069626383523
46	1004	103	90.325201919433
46	1005	104	98.493522290332
46	1006	105	105.21457581729
46	1007	106	111.78312884588
46	1008	107	117.74390478588
46	1009	108	124.18255209933
46	1010	109	129.45398982615
46	1011	110	135.08317157628
46	1012	111	138.73073195376
46	1013	112	141.61392877257
46	1014	113	142.51620196019
46	1015	114	145.3966347629
46	1016	115	147.89206332906
46	1017	116	150.88207521474
46	1018	117	151.18992488579
46	1019	118	157.66176987908
46	1020	119	161.25865744378
46	1021	120	165.65087445128
46	1022	121	169.85562538738
46	1023	122	180.76513298947
46	1024	123	190.08202798175
46	1025	124	197.5496954593
46	1026	125	205.12625920567
46	1027	126	210.74071141521
46	1028	127	214.39305208792
46	1029	128	217.65957063279
46	1030	129	220.34436091174
46	1031	130	224.42806464423
46	1032	131	230.86260326165
46	1033	132	238.20262821694
46	1034	133	248.15078772199
46	1035	134	256.39636499524
46	1036	135	263.16239697881
46	1037	136	268.22584673059
46	1038	137	269.3166389859
46	1039	138	269.42150520098
46	1040	139	269.55964128113
46	1041	140	269.7550010348
46	1042	141	269.98524311709
46	1043	142	270.21632075473
46	1044	143	270.47368421813
46	1045	144	270.68189874536
46	1046	145	270.84096433642
46	1047	146	270.87644371777
46	1048	147	268.59865113659
46	1049	148	264.38140335118
46	1050	149	258.36527579935
46	1051	150	251.96662714575
46	1052	151	243.78473670683
46	1053	152	237.05057923804
46	1054	153	232.02059348469
46	1055	154	226.48829501204
46	1056	155	221.90754222075
46	1057	156	213.56255204224
46	1058	157	204.24727586956
46	1059	158	194.05805032921
46	1060	159	186.04871440597
46	1061	160	178.73940192963
46	1062	161	172.61473614538
46	1063	162	168.66995997825
46	1064	163	165.34149048934
46	1065	164	162.93959070342
46	1066	165	160.16157684987
46	1067	166	157.05987190962
46	1068	167	153.47743063151
46	1069	168	149.88982590632
45	29	28	171.24229591837
45	30	29	171.24229591837
45	31	30	170.40438592464
45	32	31	168.51956602409
45	33	32	165.20765293701
45	34	33	160.3223796021
45	35	34	153.87627984893
45	36	35	146.54743663316
45	37	36	137.67543820316
45	38	37	128.46574654309
45	39	38	117.8326493684
45	40	39	107.26360760354
45	41	40	98.116981683765
45	42	41	90.594399479842
45	43	42	87.115384989944
45	44	43	84.415285417005
45	45	44	82.410544041007
45	46	45	81.10116086195
45	48	46	80.27399290895
45	123	47	78.574188967883
45	125	48	77.216443079152
45	200	49	77.955316858173
45	201	50	81.23461451245
45	203	51	84.882328222878
45	278	52	87.574952112946
45	279	53	89.312486182655
45	281	54	91.22260054308
45	356	55	93.076774438869
45	357	56	95.109277291559
45	358	57	100.43133798501
45	360	58	109.42834920226
45	361	59	121.71579155657
45	436	60	136.52171022355
45	438	61	149.25199863844
45	513	62	161.94841214828
45	514	63	174.86840986124
45	515	64	186.3854253827
45	517	65	196.37784369414
45	592	66	204.22171730705
45	594	67	209.9170462214
45	669	68	215.85983887197
45	670	69	222.84380167514
45	672	70	229.69919215925
45	747	71	232.647390701
45	748	72	236.12604496131
45	750	73	240.37561516101
45	825	74	244.95396483828
45	826	75	248.84019243267
45	828	76	252.4850824178
45	903	77	254.67136339151
45	904	78	252.90523370101
45	906	79	250.66343613101
45	981	80	248.01338385512
45	982	81	245.20282368946
45	983	82	242.38224725988
45	984	83	239.79165519973
45	985	84	237.84391781385
45	986	85	232.64408559453
45	987	86	222.75139651893
45	988	87	212.75870870442
45	989	88	201.84213817362
45	990	89	192.03306228478
45	991	90	184.03439448976
45	992	91	174.76384569522
45	993	92	164.03525550874
45	994	93	151.46037323443
45	995	94	138.89552623715
45	996	95	128.47792413783
45	997	96	120.20756693647
45	998	97	113.06186468891
45	999	98	106.26332453451
45	1000	99	96.909030529946
45	1001	100	88.437842215587
45	1002	101	83.846538751112
45	1003	102	80.073257952548
45	1004	103	76.656666328877
45	1005	104	73.935432902146
45	1006	105	75.411732399793
45	1007	106	78.577603649829
45	1008	107	81.450542194167
45	1009	108	84.553802277483
45	1010	109	87.094497781206
45	1011	110	89.807616574094
45	1012	111	91.565645546623
45	1013	112	92.955780410162
45	1014	113	93.395543812529
45	1015	114	95.540601936832
45	1016	115	101.68301109127
45	1017	116	110.19537780131
45	1018	117	120.71960192154
45	1019	118	129.49672153218
45	1020	119	139.7368232897
45	1021	120	152.24117553557
45	1022	121	162.37195899694
45	1023	122	167.88613546602
45	1024	123	172.61129104087
45	1025	124	176.39859256587
45	1026	125	180.24112191218
45	1027	126	183.08854695879
45	1028	127	184.94086770569
45	1029	128	186.18988726527
45	1030	129	184.20352195504
45	1031	130	180.86194114514
45	1032	131	175.59673774817
45	1033	132	169.5906001482
45	1034	133	161.45029882531
45	1035	134	154.70317303269
45	1036	135	149.16671786441
45	1037	136	145.02343822641
45	1038	137	140.92540538092
45	1039	138	136.23264225606
45	1040	139	130.05105266947
45	1041	140	121.30870369279
45	1042	141	111.00537051033
45	1043	142	100.66464622567
45	1044	143	89.147631238569
45	1045	144	79.830031145085
45	1046	145	72.711845945218
45	1047	146	67.799331153304
45	1048	147	65.57074278231
45	1049	148	62.129091628714
45	1050	149	57.219393792006
45	1051	150	51.997524544419
45	1052	151	45.320370604095
45	1053	152	39.824696173707
45	1054	153	35.719778191302
45	1055	154	31.204928130499
45	1056	155	30.463899845089
45	1057	156	31.595448556849
45	1058	157	32.858564333788
45	1059	158	34.240184298267
45	1060	159	35.326219578373
45	1061	160	36.31733435976
45	1062	161	37.147815586205
45	1063	162	37.682712128276
45	1064	163	39.858677854268
45	1065	164	47.360908049821
45	1066	165	56.037914283741
45	1067	166	65.725955640335
45	1068	167	76.915556175667
45	1069	168	88.121284514832

